
 OpenBabel06162213033D

 57 57  0  0  0  0  0  0  0  0999 V2000
    0.8215    0.0320   -0.0084 C   0  0  0  0  0  0  0  0  0  0  0  0
    2.3365   -0.0838    0.0072 C   0  0  0  0  0  0  0  0  0  0  0  0
    2.8589   -0.7123   -1.2828 C   0  0  0  0  0  0  0  0  0  0  0  0
    4.3821   -0.8311   -1.2555 C   0  0  0  0  0  0  0  0  0  0  0  0
    4.9117   -1.4172   -2.5636 C   0  0  0  0  0  0  0  0  0  0  0  0
    6.4270   -1.4934   -2.5660 C   0  0  0  0  0  0  0  0  0  0  0  0
    7.1011   -0.3703   -3.0861 C   0  0  0  0  0  0  0  0  0  0  0  0
    8.4865   -0.3162   -3.1160 C   0  0  0  0  0  0  0  0  0  0  0  0
    9.1046    0.7961   -3.6131 O   0  0  0  0  0  0  0  0  0  0  0  0
    9.2558   -1.3917   -2.6679 C   0  0  0  0  0  0  0  0  0  0  0  0
   10.7626   -1.3469   -2.7782 C   0  0  0  0  0  0  0  0  0  0  0  0
   11.4536   -0.8465   -1.5317 C   0  0  0  0  0  0  0  0  0  0  0  0
   12.6656   -1.2257   -1.0719 C   0  0  0  0  0  0  0  0  0  0  0  0
   13.5337   -2.2398   -1.7696 C   0  0  0  0  0  0  0  0  0  0  0  0
   13.2138   -0.5685    0.1990 C   0  0  0  0  0  0  0  0  0  0  0  0
   14.6098   -1.0486    0.6270 C   0  0  0  0  0  0  0  0  0  0  0  0
   15.1525   -0.4012    1.8708 C   0  0  0  0  0  0  0  0  0  0  0  0
   16.3556   -0.6940    2.4059 C   0  0  0  0  0  0  0  0  0  0  0  0
   17.3094   -1.7048    1.8241 C   0  0  0  0  0  0  0  0  0  0  0  0
   16.8451   -0.0251    3.6620 C   0  0  0  0  0  0  0  0  0  0  0  0
    8.5813   -2.5120   -2.1435 C   0  0  0  0  0  0  0  0  0  0  0  0
    9.3488   -3.5983   -1.7946 O   0  0  0  0  0  0  0  0  0  0  0  0
    7.1733   -2.5772   -2.0405 C   0  0  0  0  0  0  0  0  0  0  0  0
    6.5025   -3.7557   -1.3336 C   0  0  0  0  0  0  0  0  0  0  0  0
    7.0549   -4.1991   -0.2701 O   0  0  0  0  0  0  0  0  0  0  0  0
    5.4047   -4.1907   -1.8066 O   0  5  0  0  0  0  0  0  0  0  0  0
    0.4661    0.4785    0.9253 H   0  0  0  0  0  0  0  0  0  0  0  0
    0.3552   -0.9525   -0.1149 H   0  0  0  0  0  0  0  0  0  0  0  0
    0.4859    0.6632   -0.8374 H   0  0  0  0  0  0  0  0  0  0  0  0
    2.6442   -0.6893    0.8677 H   0  0  0  0  0  0  0  0  0  0  0  0
    2.7726    0.9133    0.1393 H   0  0  0  0  0  0  0  0  0  0  0  0
    2.5502   -0.1007   -2.1397 H   0  0  0  0  0  0  0  0  0  0  0  0
    2.4150   -1.7059   -1.4182 H   0  0  0  0  0  0  0  0  0  0  0  0
    4.6904   -1.4535   -0.4076 H   0  0  0  0  0  0  0  0  0  0  0  0
    4.8197    0.1625   -1.0955 H   0  0  0  0  0  0  0  0  0  0  0  0
    4.5940   -0.7754   -3.3948 H   0  0  0  0  0  0  0  0  0  0  0  0
    4.4511   -2.3794   -2.7949 H   0  0  0  0  0  0  0  0  0  0  0  0
    6.5157    0.4635   -3.4571 H   0  0  0  0  0  0  0  0  0  0  0  0
    8.4153    1.4185   -3.8910 H   0  0  0  0  0  0  0  0  0  0  0  0
   11.0525   -0.6995   -3.6113 H   0  0  0  0  0  0  0  0  0  0  0  0
   11.1041   -2.3461   -3.0649 H   0  0  0  0  0  0  0  0  0  0  0  0
   10.9053   -0.0813   -0.9798 H   0  0  0  0  0  0  0  0  0  0  0  0
   13.0962   -2.6366   -2.6905 H   0  0  0  0  0  0  0  0  0  0  0  0
   13.7260   -3.0960   -1.1165 H   0  0  0  0  0  0  0  0  0  0  0  0
   14.4886   -1.7904   -2.0596 H   0  0  0  0  0  0  0  0  0  0  0  0
   12.5103   -0.7487    1.0193 H   0  0  0  0  0  0  0  0  0  0  0  0
   13.2553    0.5164    0.0364 H   0  0  0  0  0  0  0  0  0  0  0  0
   15.3168   -0.8484   -0.1885 H   0  0  0  0  0  0  0  0  0  0  0  0
   14.5708   -2.1313    0.7989 H   0  0  0  0  0  0  0  0  0  0  0  0
   14.5184    0.3415    2.3550 H   0  0  0  0  0  0  0  0  0  0  0  0
   16.9354   -2.1789    0.9126 H   0  0  0  0  0  0  0  0  0  0  0  0
   17.5016   -2.5019    2.5495 H   0  0  0  0  0  0  0  0  0  0  0  0
   18.2607   -1.2245    1.5732 H   0  0  0  0  0  0  0  0  0  0  0  0
   16.1214    0.7008    4.0530 H   0  0  0  0  0  0  0  0  0  0  0  0
   17.7806    0.5077    3.4644 H   0  0  0  0  0  0  0  0  0  0  0  0
   17.0268   -0.7715    4.4376 H   0  0  0  0  0  0  0  0  0  0  0  0
    9.9877   -3.2830   -1.1375 H   0  0  0  0  0  0  0  0  0  0  0  0
  1  2  1  0  0  0  0
  1 27  1  0  0  0  0
  1 28  1  0  0  0  0
  1 29  1  0  0  0  0
  2  3  1  0  0  0  0
  2 30  1  0  0  0  0
  2 31  1  0  0  0  0
  3  4  1  0  0  0  0
  3 32  1  0  0  0  0
  3 33  1  0  0  0  0
  4  5  1  0  0  0  0
  4 34  1  0  0  0  0
  4 35  1  0  0  0  0
  5  6  1  0  0  0  0
  5 36  1  0  0  0  0
  5 37  1  0  0  0  0
  6  7  1  0  0  0  0
  6 23  2  0  0  0  0
  7  8  2  0  0  0  0
  7 38  1  0  0  0  0
  8  9  1  0  0  0  0
  8 10  1  0  0  0  0
  9 39  1  0  0  0  0
 10 11  1  0  0  0  0
 10 21  2  0  0  0  0
 11 12  1  0  0  0  0
 11 40  1  0  0  0  0
 11 41  1  0  0  0  0
 12 13  2  0  0  0  0
 12 42  1  0  0  0  0
 13 14  1  0  0  0  0
 13 15  1  0  0  0  0
 14 43  1  0  0  0  0
 14 44  1  0  0  0  0
 14 45  1  0  0  0  0
 15 16  1  0  0  0  0
 15 46  1  0  0  0  0
 15 47  1  0  0  0  0
 16 17  1  0  0  0  0
 16 48  1  0  0  0  0
 16 49  1  0  0  0  0
 17 18  2  0  0  0  0
 17 50  1  0  0  0  0
 18 19  1  0  0  0  0
 18 20  1  0  0  0  0
 19 51  1  0  0  0  0
 19 52  1  0  0  0  0
 19 53  1  0  0  0  0
 20 54  1  0  0  0  0
 20 55  1  0  0  0  0
 20 56  1  0  0  0  0
 21 22  1  0  0  0  0
 21 23  1  0  0  0  0
 22 57  1  0  0  0  0
 23 24  1  0  0  0  0
 24 25  2  0  0  0  0
 24 26  1  0  0  0  0
M  CHG  1  26  -1
M  END
$$$$
