
 OpenBabel06162213053D

 55 55  0  0  0  0  0  0  0  0999 V2000
    3.6699    3.1121    1.7818 C   0  0  0  0  0  0  0  0  0  0  0  0
    4.3680    2.0417    1.3836 C   0  0  0  0  0  0  0  0  0  0  0  0
    5.1239    1.9732    0.0903 C   0  0  0  0  0  0  0  0  0  0  0  0
    4.6718    0.8121   -0.8066 C   0  0  0  0  0  0  0  0  0  0  0  0
    5.3895    0.8132   -2.1642 C   0  0  0  0  0  0  0  0  0  0  0  0
    6.8878    0.6177   -2.0295 C   0  0  0  0  0  0  0  0  0  0  0  0
    7.6511    1.7988   -1.9429 C   0  0  0  0  0  0  0  0  0  0  0  0
    9.0015    1.7544   -1.6410 C   0  0  0  0  0  0  0  0  0  0  0  0
    9.6947    2.9258   -1.4875 O   0  0  0  0  0  0  0  0  0  0  0  0
    9.6585    0.5362   -1.4729 C   0  0  0  0  0  0  0  0  0  0  0  0
   11.1252    0.5499   -1.1225 C   0  0  0  0  0  0  0  0  0  0  0  0
   12.0113    0.5049   -2.3285 C   0  0  0  0  0  0  0  0  0  0  0  0
   13.1944   -0.1300   -2.4575 C   0  0  0  0  0  0  0  0  0  0  0  0
   13.8216   -0.9201   -1.3349 C   0  0  0  0  0  0  0  0  0  0  0  0
   13.9434   -0.0159   -3.7773 C   0  0  0  0  0  0  0  0  0  0  0  0
   15.3050   -0.7155   -3.7752 C   0  0  0  0  0  0  0  0  0  0  0  0
   16.0972   -0.6095   -5.0449 C   0  0  0  0  0  0  0  0  0  0  0  0
   17.3063   -1.1866   -5.1941 C   0  0  0  0  0  0  0  0  0  0  0  0
   17.9881   -1.9812   -4.1080 C   0  0  0  0  0  0  0  0  0  0  0  0
   18.0795   -1.0798   -6.4754 C   0  0  0  0  0  0  0  0  0  0  0  0
    8.9179   -0.6565   -1.6479 C   0  0  0  0  0  0  0  0  0  0  0  0
    9.5623   -1.8676   -1.6239 O   0  0  0  0  0  0  0  0  0  0  0  0
    7.5201   -0.6480   -1.8812 C   0  0  0  0  0  0  0  0  0  0  0  0
    6.7275   -1.9572   -1.9370 C   0  0  0  0  0  0  0  0  0  0  0  0
    7.0470   -2.8960   -1.1384 O   0  0  0  0  0  0  0  0  0  0  0  0
    5.7514   -2.0174   -2.7539 O   0  5  0  0  0  0  0  0  0  0  0  0
    3.1682    3.1183    2.7431 H   0  0  0  0  0  0  0  0  0  0  0  0
    3.5933    3.9998    1.1625 H   0  0  0  0  0  0  0  0  0  0  0  0
    4.4412    1.1715    2.0327 H   0  0  0  0  0  0  0  0  0  0  0  0
    6.1823    1.8614    0.3507 H   0  0  0  0  0  0  0  0  0  0  0  0
    5.0262    2.9180   -0.4596 H   0  0  0  0  0  0  0  0  0  0  0  0
    3.5930    0.8945   -0.9886 H   0  0  0  0  0  0  0  0  0  0  0  0
    4.8365   -0.1425   -0.2926 H   0  0  0  0  0  0  0  0  0  0  0  0
    5.1976    1.7725   -2.6653 H   0  0  0  0  0  0  0  0  0  0  0  0
    4.9410    0.0843   -2.8407 H   0  0  0  0  0  0  0  0  0  0  0  0
    7.1525    2.7570   -2.0541 H   0  0  0  0  0  0  0  0  0  0  0  0
    9.0633    3.6585   -1.5613 H   0  0  0  0  0  0  0  0  0  0  0  0
   11.3163   -0.2665   -0.4147 H   0  0  0  0  0  0  0  0  0  0  0  0
   11.3689    1.4542   -0.5512 H   0  0  0  0  0  0  0  0  0  0  0  0
   11.6358    1.0679   -3.1844 H   0  0  0  0  0  0  0  0  0  0  0  0
   13.2305   -0.9408   -0.4173 H   0  0  0  0  0  0  0  0  0  0  0  0
   14.7899   -0.4885   -1.0597 H   0  0  0  0  0  0  0  0  0  0  0  0
   13.9656   -1.9624   -1.6374 H   0  0  0  0  0  0  0  0  0  0  0  0
   14.0922    1.0490   -4.0073 H   0  0  0  0  0  0  0  0  0  0  0  0
   13.3225   -0.4349   -4.5786 H   0  0  0  0  0  0  0  0  0  0  0  0
   15.1463   -1.7813   -3.5660 H   0  0  0  0  0  0  0  0  0  0  0  0
   15.9146   -0.2827   -2.9744 H   0  0  0  0  0  0  0  0  0  0  0  0
   15.6562   -0.0518   -5.8718 H   0  0  0  0  0  0  0  0  0  0  0  0
   17.4089   -2.0465   -3.1822 H   0  0  0  0  0  0  0  0  0  0  0  0
   18.9478   -1.5222   -3.8509 H   0  0  0  0  0  0  0  0  0  0  0  0
   18.1659   -3.0068   -4.4459 H   0  0  0  0  0  0  0  0  0  0  0  0
   17.5479   -0.4958   -7.2328 H   0  0  0  0  0  0  0  0  0  0  0  0
   18.2630   -2.0773   -6.8879 H   0  0  0  0  0  0  0  0  0  0  0  0
   19.0443   -0.5950   -6.2938 H   0  0  0  0  0  0  0  0  0  0  0  0
   10.5068   -1.7643   -1.4667 H   0  0  0  0  0  0  0  0  0  0  0  0
  1  2  2  0  0  0  0
  1 27  1  0  0  0  0
  1 28  1  0  0  0  0
  2  3  1  0  0  0  0
  2 29  1  0  0  0  0
  3  4  1  0  0  0  0
  3 30  1  0  0  0  0
  3 31  1  0  0  0  0
  4  5  1  0  0  0  0
  4 32  1  0  0  0  0
  4 33  1  0  0  0  0
  5  6  1  0  0  0  0
  5 34  1  0  0  0  0
  5 35  1  0  0  0  0
  6  7  1  0  0  0  0
  6 23  2  0  0  0  0
  7  8  2  0  0  0  0
  7 36  1  0  0  0  0
  8  9  1  0  0  0  0
  8 10  1  0  0  0  0
  9 37  1  0  0  0  0
 10 11  1  0  0  0  0
 10 21  2  0  0  0  0
 11 12  1  0  0  0  0
 11 38  1  0  0  0  0
 11 39  1  0  0  0  0
 12 13  2  0  0  0  0
 12 40  1  0  0  0  0
 13 14  1  0  0  0  0
 13 15  1  0  0  0  0
 14 41  1  0  0  0  0
 14 42  1  0  0  0  0
 14 43  1  0  0  0  0
 15 16  1  0  0  0  0
 15 44  1  0  0  0  0
 15 45  1  0  0  0  0
 16 17  1  0  0  0  0
 16 46  1  0  0  0  0
 16 47  1  0  0  0  0
 17 18  2  0  0  0  0
 17 48  1  0  0  0  0
 18 19  1  0  0  0  0
 18 20  1  0  0  0  0
 19 49  1  0  0  0  0
 19 50  1  0  0  0  0
 19 51  1  0  0  0  0
 20 52  1  0  0  0  0
 20 53  1  0  0  0  0
 20 54  1  0  0  0  0
 21 22  1  0  0  0  0
 21 23  1  0  0  0  0
 22 55  1  0  0  0  0
 23 24  1  0  0  0  0
 24 25  2  0  0  0  0
 24 26  1  0  0  0  0
M  CHG  1  26  -1
M  END
$$$$
