
 OpenBabel06162213023D

 63 63  0  0  0  0  0  0  0  0999 V2000
    6.8896   11.2175    2.3845 C   0  0  0  0  0  0  0  0  0  0  0  0
    6.3298    9.9551    3.0172 C   0  0  0  0  0  0  0  0  0  0  0  0
    6.9139    8.7093    2.3587 C   0  0  0  0  0  0  0  0  0  0  0  0
    6.3485    7.4359    2.9818 C   0  0  0  0  0  0  0  0  0  0  0  0
    6.9592    6.2038    2.3197 C   0  0  0  0  0  0  0  0  0  0  0  0
    6.4431    4.9173    2.9642 C   0  0  0  0  0  0  0  0  0  0  0  0
    7.0872    3.6569    2.3796 C   0  0  0  0  0  0  0  0  0  0  0  0
    8.6066    3.6247    2.4049 C   0  0  0  0  0  0  0  0  0  0  0  0
    9.2643    3.7008    1.1642 C   0  0  0  0  0  0  0  0  0  0  0  0
   10.6544    3.6923    1.0862 C   0  0  0  0  0  0  0  0  0  0  0  0
   11.2622    3.7689   -0.1388 O   0  0  0  0  0  0  0  0  0  0  0  0
   11.4400    3.5807    2.2360 C   0  0  0  0  0  0  0  0  0  0  0  0
   12.9466    3.4841    2.1325 C   0  0  0  0  0  0  0  0  0  0  0  0
   13.6662    4.8079    2.2638 C   0  0  0  0  0  0  0  0  0  0  0  0
   14.8824    5.0116    2.8104 C   0  0  0  0  0  0  0  0  0  0  0  0
   15.7279    3.9102    3.3910 C   0  0  0  0  0  0  0  0  0  0  0  0
   15.4640    6.4308    2.8099 C   0  0  0  0  0  0  0  0  0  0  0  0
   16.8627    6.5608    3.4385 C   0  0  0  0  0  0  0  0  0  0  0  0
   17.4384    7.9513    3.4373 C   0  0  0  0  0  0  0  0  0  0  0  0
   18.6485    8.2620    3.9472 C   0  0  0  0  0  0  0  0  0  0  0  0
   19.5746    7.2581    4.5824 C   0  0  0  0  0  0  0  0  0  0  0  0
   19.1730    9.6720    3.9299 C   0  0  0  0  0  0  0  0  0  0  0  0
   10.7797    3.5065    3.4787 C   0  0  0  0  0  0  0  0  0  0  0  0
   11.5551    3.3150    4.5949 O   0  0  0  0  0  0  0  0  0  0  0  0
    9.3737    3.5447    3.5981 C   0  0  0  0  0  0  0  0  0  0  0  0
    8.7176    3.5382    4.9649 C   0  0  0  0  0  0  0  0  0  0  0  0
    9.1714    4.3439    5.8406 O   0  0  0  0  0  0  0  0  0  0  0  0
    7.7092    2.7734    5.1243 O   0  5  0  0  0  0  0  0  0  0  0  0
    6.4598   12.1034    2.8614 H   0  0  0  0  0  0  0  0  0  0  0  0
    6.6541   11.2562    1.3160 H   0  0  0  0  0  0  0  0  0  0  0  0
    7.9776   11.2622    2.4976 H   0  0  0  0  0  0  0  0  0  0  0  0
    5.2383    9.9522    2.9187 H   0  0  0  0  0  0  0  0  0  0  0  0
    6.5604    9.9534    4.0890 H   0  0  0  0  0  0  0  0  0  0  0  0
    8.0060    8.7166    2.4645 H   0  0  0  0  0  0  0  0  0  0  0  0
    6.6946    8.7205    1.2840 H   0  0  0  0  0  0  0  0  0  0  0  0
    5.2579    7.4150    2.8726 H   0  0  0  0  0  0  0  0  0  0  0  0
    6.5693    7.4226    4.0559 H   0  0  0  0  0  0  0  0  0  0  0  0
    8.0489    6.2636    2.4143 H   0  0  0  0  0  0  0  0  0  0  0  0
    6.7268    6.1996    1.2475 H   0  0  0  0  0  0  0  0  0  0  0  0
    5.3577    4.8518    2.8130 H   0  0  0  0  0  0  0  0  0  0  0  0
    6.5992    4.9648    4.0459 H   0  0  0  0  0  0  0  0  0  0  0  0
    6.7433    3.5637    1.3395 H   0  0  0  0  0  0  0  0  0  0  0  0
    6.6917    2.7610    2.8716 H   0  0  0  0  0  0  0  0  0  0  0  0
    8.6722    3.7754    0.2571 H   0  0  0  0  0  0  0  0  0  0  0  0
   10.5669    3.7545   -0.8151 H   0  0  0  0  0  0  0  0  0  0  0  0
   13.2180    3.0423    1.1673 H   0  0  0  0  0  0  0  0  0  0  0  0
   13.2821    2.7585    2.8786 H   0  0  0  0  0  0  0  0  0  0  0  0
   13.1301    5.6565    1.8416 H   0  0  0  0  0  0  0  0  0  0  0  0
   15.2685    2.9229    3.3249 H   0  0  0  0  0  0  0  0  0  0  0  0
   15.9247    4.0963    4.4516 H   0  0  0  0  0  0  0  0  0  0  0  0
   16.6819    3.8359    2.8589 H   0  0  0  0  0  0  0  0  0  0  0  0
   14.7727    7.0957    3.3435 H   0  0  0  0  0  0  0  0  0  0  0  0
   15.5153    6.7849    1.7711 H   0  0  0  0  0  0  0  0  0  0  0  0
   17.5558    5.9137    2.8873 H   0  0  0  0  0  0  0  0  0  0  0  0
   16.8120    6.2160    4.4783 H   0  0  0  0  0  0  0  0  0  0  0  0
   16.8224    8.7373    2.9996 H   0  0  0  0  0  0  0  0  0  0  0  0
   19.1728    6.2417    4.5904 H   0  0  0  0  0  0  0  0  0  0  0  0
   19.7755    7.5347    5.6224 H   0  0  0  0  0  0  0  0  0  0  0  0
   20.5249    7.2271    4.0401 H   0  0  0  0  0  0  0  0  0  0  0  0
   18.4721   10.3703    3.4642 H   0  0  0  0  0  0  0  0  0  0  0  0
   20.1136    9.7161    3.3714 H   0  0  0  0  0  0  0  0  0  0  0  0
   19.3607   10.0168    4.9527 H   0  0  0  0  0  0  0  0  0  0  0  0
   12.1791    4.0586    4.6214 H   0  0  0  0  0  0  0  0  0  0  0  0
  1  2  1  0  0  0  0
  1 29  1  0  0  0  0
  1 30  1  0  0  0  0
  1 31  1  0  0  0  0
  2  3  1  0  0  0  0
  2 32  1  0  0  0  0
  2 33  1  0  0  0  0
  3  4  1  0  0  0  0
  3 34  1  0  0  0  0
  3 35  1  0  0  0  0
  4  5  1  0  0  0  0
  4 36  1  0  0  0  0
  4 37  1  0  0  0  0
  5  6  1  0  0  0  0
  5 38  1  0  0  0  0
  5 39  1  0  0  0  0
  6  7  1  0  0  0  0
  6 40  1  0  0  0  0
  6 41  1  0  0  0  0
  7  8  1  0  0  0  0
  7 42  1  0  0  0  0
  7 43  1  0  0  0  0
  8  9  1  0  0  0  0
  8 25  2  0  0  0  0
  9 10  2  0  0  0  0
  9 44  1  0  0  0  0
 10 11  1  0  0  0  0
 10 12  1  0  0  0  0
 11 45  1  0  0  0  0
 12 13  1  0  0  0  0
 12 23  2  0  0  0  0
 13 14  1  0  0  0  0
 13 46  1  0  0  0  0
 13 47  1  0  0  0  0
 14 15  2  0  0  0  0
 14 48  1  0  0  0  0
 15 16  1  0  0  0  0
 15 17  1  0  0  0  0
 16 49  1  0  0  0  0
 16 50  1  0  0  0  0
 16 51  1  0  0  0  0
 17 18  1  0  0  0  0
 17 52  1  0  0  0  0
 17 53  1  0  0  0  0
 18 19  1  0  0  0  0
 18 54  1  0  0  0  0
 18 55  1  0  0  0  0
 19 20  2  0  0  0  0
 19 56  1  0  0  0  0
 20 21  1  0  0  0  0
 20 22  1  0  0  0  0
 21 57  1  0  0  0  0
 21 58  1  0  0  0  0
 21 59  1  0  0  0  0
 22 60  1  0  0  0  0
 22 61  1  0  0  0  0
 22 62  1  0  0  0  0
 23 24  1  0  0  0  0
 23 25  1  0  0  0  0
 24 63  1  0  0  0  0
 25 26  1  0  0  0  0
 26 27  2  0  0  0  0
 26 28  1  0  0  0  0
M  CHG  1  28  -1
M  END
$$$$
