
 OpenBabel06162213083D

 61 63  0  0  1  0  0  0  0  0999 V2000
    7.2995   -7.8142    7.7332 C   0  0  0  0  0  0  0  0  0  0  0  0
    6.8433   -7.8173    6.2821 C   0  0  0  0  0  0  0  0  0  0  0  0
    7.3562   -6.5934    5.5194 C   0  0  0  0  0  0  0  0  0  0  0  0
    6.8813   -6.6176    4.0624 C   0  0  0  0  0  0  0  0  0  0  0  0
    7.3991   -5.4008    3.2709 C   0  0  0  0  0  0  0  0  0  0  0  0
    6.9472   -5.4745    1.8015 C   0  0  0  0  0  0  0  0  0  0  0  0
    7.4321   -4.2792    0.9446 C   0  0  0  0  0  0  0  0  0  0  0  0
    8.9424   -4.1593    0.8425 C   0  0  0  0  0  0  0  0  0  0  0  0
    9.5327   -3.3118    1.7774 C   0  0  0  0  0  0  0  0  0  0  0  0
   10.9198   -3.1782    1.7976 C   0  0  0  0  0  0  0  0  0  0  0  0
   11.3471   -2.2030    2.8149 O   0  0  0  0  0  0  0  0  0  0  0  0
   12.6362   -1.8098    2.3003 C   0  0  0  0  0  0  0  0  0  0  0  0
   13.6054   -0.7450    2.8551 C   0  0  0  0  0  0  0  0  0  0  0  0
   11.9707   -0.8993    1.1597 C   0  0  0  0  0  0  0  0  0  0  0  0
   13.2567   -3.2701    2.5842 C   0  0  2  0  0  0  0  0  0  0  0  0
   14.3299   -3.5288    3.6258 C   0  0  0  0  0  0  0  0  0  0  0  0
   15.7199   -3.3424    3.1443 C   0  0  0  0  0  0  0  0  0  0  0  0
   15.8446   -3.2469    1.6351 C   0  0  0  0  0  0  0  0  0  0  0  0
   17.3077   -2.9066    1.3349 C   0  0  0  0  0  0  0  0  0  0  0  0
   14.7751   -3.4462    0.7675 C   0  0  0  0  0  0  0  0  0  0  0  0
   13.3973   -3.9791    1.2808 C   0  0  3  0  0  0  0  0  0  0  0  0
   11.8528   -3.8606    0.8891 C   0  0  0  0  0  0  0  0  0  0  0  0
   11.2184   -4.7342   -0.0127 C   0  0  0  0  0  0  0  0  0  0  0  0
   12.0219   -5.5527   -0.7706 O   0  0  0  0  0  0  0  0  0  0  0  0
    9.7569   -4.8895   -0.0646 C   0  0  0  0  0  0  0  0  0  0  0  0
    9.1882   -5.9114   -1.0481 C   0  0  0  0  0  0  0  0  0  0  0  0
    9.9696   -6.8204   -1.4015 O   0  0  0  0  0  0  0  0  0  0  0  0
    7.9820   -5.7718   -1.4368 O   0  5  0  0  0  0  0  0  0  0  0  0
    6.9172   -8.6987    8.2524 H   0  0  0  0  0  0  0  0  0  0  0  0
    6.9315   -6.9273    8.2593 H   0  0  0  0  0  0  0  0  0  0  0  0
    8.3921   -7.8269    7.8024 H   0  0  0  0  0  0  0  0  0  0  0  0
    5.7477   -7.8415    6.2524 H   0  0  0  0  0  0  0  0  0  0  0  0
    7.2004   -8.7337    5.7981 H   0  0  0  0  0  0  0  0  0  0  0  0
    8.4521   -6.5741    5.5531 H   0  0  0  0  0  0  0  0  0  0  0  0
    7.0012   -5.6788    6.0094 H   0  0  0  0  0  0  0  0  0  0  0  0
    5.7906   -6.6333    4.0292 H   0  0  0  0  0  0  0  0  0  0  0  0
    7.2411   -7.5321    3.5798 H   0  0  0  0  0  0  0  0  0  0  0  0
    8.4911   -5.3931    3.3295 H   0  0  0  0  0  0  0  0  0  0  0  0
    7.0369   -4.4788    3.7353 H   0  0  0  0  0  0  0  0  0  0  0  0
    5.8484   -5.4738    1.7799 H   0  0  0  0  0  0  0  0  0  0  0  0
    7.2813   -6.4048    1.3593 H   0  0  0  0  0  0  0  0  0  0  0  0
    7.0177   -3.3545    1.3640 H   0  0  0  0  0  0  0  0  0  0  0  0
    6.9621   -4.3256   -0.0449 H   0  0  0  0  0  0  0  0  0  0  0  0
    8.9418   -2.7768    2.5022 H   0  0  0  0  0  0  0  0  0  0  0  0
   14.6354   -1.1301    2.9707 H   0  0  0  0  0  0  0  0  0  0  0  0
   13.2946   -0.2599    3.7405 H   0  0  0  0  0  0  0  0  0  0  0  0
   13.8269    0.0072    2.0792 H   0  0  0  0  0  0  0  0  0  0  0  0
   10.9257   -1.1097    0.8784 H   0  0  0  0  0  0  0  0  0  0  0  0
   12.5518   -0.7586    0.2546 H   0  0  0  0  0  0  0  0  0  0  0  0
   11.7851    0.0954    1.6145 H   0  0  0  0  0  0  0  0  0  0  0  0
   12.5124   -3.8848    3.1411 H   0  0  0  0  0  0  0  0  0  0  0  0
   14.1236   -2.9309    4.5358 H   0  0  0  0  0  0  0  0  0  0  0  0
   14.2387   -4.5723    3.9526 H   0  0  0  0  0  0  0  0  0  0  0  0
   16.3524   -4.1571    3.5182 H   0  0  0  0  0  0  0  0  0  0  0  0
   16.1199   -2.4311    3.6118 H   0  0  0  0  0  0  0  0  0  0  0  0
   17.7875   -2.4827    2.2341 H   0  0  0  0  0  0  0  0  0  0  0  0
   17.4505   -2.1610    0.5531 H   0  0  0  0  0  0  0  0  0  0  0  0
   17.8841   -3.8159    1.1315 H   0  0  0  0  0  0  0  0  0  0  0  0
   14.9579   -3.4160   -0.2988 H   0  0  0  0  0  0  0  0  0  0  0  0
   13.5548   -5.0602    1.4166 H   0  0  0  0  0  0  0  0  0  0  0  0
   11.4109   -6.2538   -1.1403 H   0  0  0  0  0  0  0  0  0  0  0  0
  1  2  1  0  0  0  0
  1 29  1  0  0  0  0
  1 30  1  0  0  0  0
  1 31  1  0  0  0  0
  2  3  1  0  0  0  0
  2 32  1  0  0  0  0
  2 33  1  0  0  0  0
  3  4  1  0  0  0  0
  3 34  1  0  0  0  0
  3 35  1  0  0  0  0
  4  5  1  0  0  0  0
  4 36  1  0  0  0  0
  4 37  1  0  0  0  0
  5  6  1  0  0  0  0
  5 38  1  0  0  0  0
  5 39  1  0  0  0  0
  6  7  1  0  0  0  0
  6 40  1  0  0  0  0
  6 41  1  0  0  0  0
  7  8  1  0  0  0  0
  7 42  1  0  0  0  0
  7 43  1  0  0  0  0
  8  9  1  0  0  0  0
  8 25  2  0  0  0  0
  9 10  2  0  0  0  0
  9 44  1  0  0  0  0
 10 11  1  0  0  0  0
 10 22  1  0  0  0  0
 11 12  1  0  0  0  0
 12 15  1  0  0  0  0
 12 13  1  0  0  0  0
 12 14  1  0  0  0  0
 13 45  1  0  0  0  0
 13 46  1  0  0  0  0
 13 47  1  0  0  0  0
 14 48  1  0  0  0  0
 14 49  1  0  0  0  0
 14 50  1  0  0  0  0
 15 16  1  0  0  0  0
 15 21  1  0  0  0  0
 15 51  1  1  0  0  0
 16 17  1  0  0  0  0
 16 52  1  0  0  0  0
 16 53  1  0  0  0  0
 17 18  1  0  0  0  0
 17 54  1  0  0  0  0
 17 55  1  0  0  0  0
 18 20  2  0  0  0  0
 18 19  1  0  0  0  0
 19 56  1  0  0  0  0
 19 57  1  0  0  0  0
 19 58  1  0  0  0  0
 20 21  1  0  0  0  0
 20 59  1  0  0  0  0
 21 22  1  0  0  0  0
 21 60  1  0  0  0  0
 22 23  2  0  0  0  0
 23 25  1  0  0  0  0
 23 24  1  0  0  0  0
 24 61  1  0  0  0  0
 25 26  1  0  0  0  0
 26 27  2  0  0  0  0
 26 28  1  0  0  0  0
M  CHG  1  28  -1
M  END
$$$$
