
 OpenBabel06162212593D

 31 31  0  0  0  0  0  0  0  0999 V2000
    0.8406    0.5610    0.3628 C   0  0  0  0  0  0  0  0  0  0  0  0
    2.3582    0.4988    0.3439 C   0  0  0  0  0  0  0  0  0  0  0  0
    2.9506    1.2796   -0.8332 C   0  0  0  0  0  0  0  0  0  0  0  0
    4.4767    1.1884   -0.8109 C   0  0  0  0  0  0  0  0  0  0  0  0
    5.1509    1.9976   -1.9319 C   0  0  0  0  0  0  0  0  0  0  0  0
    6.6776    1.9613   -1.9611 C   0  0  0  0  0  0  0  0  0  0  0  0
    7.3889    1.2115   -0.9983 C   0  0  0  0  0  0  0  0  0  0  0  0
    8.7777    1.1573   -1.0061 C   0  0  0  0  0  0  0  0  0  0  0  0
    9.4608    0.4396   -0.0651 O   0  0  0  0  0  0  0  0  0  0  0  0
    9.5031    1.8480   -1.9526 C   0  0  0  0  0  0  0  0  0  0  0  0
    8.8255    2.6138   -2.8999 C   0  0  0  0  0  0  0  0  0  0  0  0
    9.6239    3.3546   -3.7281 O   0  0  0  0  0  0  0  0  0  0  0  0
    7.4187    2.6707   -2.9559 C   0  0  0  0  0  0  0  0  0  0  0  0
    6.7288    3.4287   -4.0754 C   0  0  0  0  0  0  0  0  0  0  0  0
    7.2099    3.2957   -5.2517 O   0  0  0  0  0  0  0  0  0  0  0  0
    5.6967    4.1055   -3.7900 O   0  5  0  0  0  0  0  0  0  0  0  0
    0.4491   -0.0103    1.2106 H   0  0  0  0  0  0  0  0  0  0  0  0
    0.4199    0.1384   -0.5550 H   0  0  0  0  0  0  0  0  0  0  0  0
    0.4920    1.5939    0.4600 H   0  0  0  0  0  0  0  0  0  0  0  0
    2.6728   -0.5504    0.2900 H   0  0  0  0  0  0  0  0  0  0  0  0
    2.7435    0.9011    1.2888 H   0  0  0  0  0  0  0  0  0  0  0  0
    2.6385    2.3290   -0.7750 H   0  0  0  0  0  0  0  0  0  0  0  0
    2.5689    0.8758   -1.7783 H   0  0  0  0  0  0  0  0  0  0  0  0
    4.7651    0.1327   -0.8901 H   0  0  0  0  0  0  0  0  0  0  0  0
    4.8299    1.5552    0.1619 H   0  0  0  0  0  0  0  0  0  0  0  0
    4.8355    3.0396   -1.8037 H   0  0  0  0  0  0  0  0  0  0  0  0
    4.7762    1.6330   -2.8980 H   0  0  0  0  0  0  0  0  0  0  0  0
    6.8578    0.6640   -0.2296 H   0  0  0  0  0  0  0  0  0  0  0  0
    8.8143    0.1215    0.5847 H   0  0  0  0  0  0  0  0  0  0  0  0
   10.5855    1.8210   -1.9400 H   0  0  0  0  0  0  0  0  0  0  0  0
   10.0436    2.7129   -4.3248 H   0  0  0  0  0  0  0  0  0  0  0  0
  1  2  1  0  0  0  0
  1 17  1  0  0  0  0
  1 18  1  0  0  0  0
  1 19  1  0  0  0  0
  2  3  1  0  0  0  0
  2 20  1  0  0  0  0
  2 21  1  0  0  0  0
  3  4  1  0  0  0  0
  3 22  1  0  0  0  0
  3 23  1  0  0  0  0
  4  5  1  0  0  0  0
  4 24  1  0  0  0  0
  4 25  1  0  0  0  0
  5  6  1  0  0  0  0
  5 26  1  0  0  0  0
  5 27  1  0  0  0  0
  6  7  1  0  0  0  0
  6 13  2  0  0  0  0
  7  8  2  0  0  0  0
  7 28  1  0  0  0  0
  8  9  1  0  0  0  0
  8 10  1  0  0  0  0
  9 29  1  0  0  0  0
 10 11  2  0  0  0  0
 10 30  1  0  0  0  0
 11 12  1  0  0  0  0
 11 13  1  0  0  0  0
 12 31  1  0  0  0  0
 13 14  1  0  0  0  0
 14 15  2  0  0  0  0
 14 16  1  0  0  0  0
M  CHG  1  16  -1
M  END
$$$$
