
 OpenBabel06162212593D

 28 28  0  0  0  0  0  0  0  0999 V2000
    1.1592    0.8510    0.6503 C   0  0  0  0  0  0  0  0  0  0  0  0
    2.6064    0.4716    0.3751 C   0  0  0  0  0  0  0  0  0  0  0  0
    3.0965   -0.5767    1.3672 C   0  0  0  0  0  0  0  0  0  0  0  0
    4.5646   -0.9388    1.1334 C   0  0  0  0  0  0  0  0  0  0  0  0
    5.0325   -1.9968    2.1187 C   0  0  0  0  0  0  0  0  0  0  0  0
    5.6005   -1.5191    3.3218 C   0  0  0  0  0  0  0  0  0  0  0  0
    5.9678   -2.3949    4.3331 C   0  0  0  0  0  0  0  0  0  0  0  0
    6.5095   -1.9432    5.5017 O   0  0  0  0  0  0  0  0  0  0  0  0
    5.8035   -3.7578    4.1724 C   0  0  0  0  0  0  0  0  0  0  0  0
    5.2707   -4.2488    2.9794 C   0  0  0  0  0  0  0  0  0  0  0  0
    5.2305   -5.6139    2.8573 O   0  0  0  0  0  0  0  0  0  0  0  0
    4.8528   -3.4012    1.9291 C   0  0  0  0  0  0  0  0  0  0  0  0
    4.1931   -3.9805    0.6676 C   0  0  0  0  0  0  0  0  0  0  0  0
    3.4384   -4.9914    0.8122 O   0  0  0  0  0  0  0  0  0  0  0  0
    4.4082   -3.3827   -0.4305 O   0  5  0  0  0  0  0  0  0  0  0  0
    0.8253    1.6154   -0.0585 H   0  0  0  0  0  0  0  0  0  0  0  0
    1.0447    1.2526    1.6618 H   0  0  0  0  0  0  0  0  0  0  0  0
    0.5008   -0.0174    0.5493 H   0  0  0  0  0  0  0  0  0  0  0  0
    3.2323    1.3688    0.4393 H   0  0  0  0  0  0  0  0  0  0  0  0
    2.6922    0.0865   -0.6476 H   0  0  0  0  0  0  0  0  0  0  0  0
    2.4704   -1.4759    1.2961 H   0  0  0  0  0  0  0  0  0  0  0  0
    2.9777   -0.1945    2.3908 H   0  0  0  0  0  0  0  0  0  0  0  0
    5.1755   -0.0352    1.2671 H   0  0  0  0  0  0  0  0  0  0  0  0
    4.7536   -1.2234    0.0967 H   0  0  0  0  0  0  0  0  0  0  0  0
    5.7265   -0.4492    3.4542 H   0  0  0  0  0  0  0  0  0  0  0  0
    6.6234   -0.9835    5.4172 H   0  0  0  0  0  0  0  0  0  0  0  0
    6.1077   -4.4319    4.9630 H   0  0  0  0  0  0  0  0  0  0  0  0
    4.8676   -5.9627    3.6784 H   0  0  0  0  0  0  0  0  0  0  0  0
  1  2  1  0  0  0  0
  1 16  1  0  0  0  0
  1 17  1  0  0  0  0
  1 18  1  0  0  0  0
  2  3  1  0  0  0  0
  2 19  1  0  0  0  0
  2 20  1  0  0  0  0
  3  4  1  0  0  0  0
  3 21  1  0  0  0  0
  3 22  1  0  0  0  0
  4  5  1  0  0  0  0
  4 23  1  0  0  0  0
  4 24  1  0  0  0  0
  5  6  1  0  0  0  0
  5 12  2  0  0  0  0
  6  7  2  0  0  0  0
  6 25  1  0  0  0  0
  7  8  1  0  0  0  0
  7  9  1  0  0  0  0
  8 26  1  0  0  0  0
  9 10  2  0  0  0  0
  9 27  1  0  0  0  0
 10 11  1  0  0  0  0
 10 12  1  0  0  0  0
 11 28  1  0  0  0  0
 12 13  1  0  0  0  0
 13 14  2  0  0  0  0
 13 15  1  0  0  0  0
M  CHG  1  15  -1
M  END
$$$$
