
 OpenBabel06162213003D

 34 34  0  0  1  0  0  0  0  0999 V2000
    0.9510    0.2416    0.3464 C   0  0  0  0  0  0  0  0  0  0  0  0
    2.4507    0.0482    0.1618 C   0  0  0  0  0  0  0  0  0  0  0  0
    2.9407   -1.3839    0.4747 C   0  0  3  0  0  0  0  0  0  0  0  0
    2.2600   -2.4122   -0.4335 C   0  0  0  0  0  0  0  0  0  0  0  0
    4.4819   -1.4289    0.3513 C   0  0  0  0  0  0  0  0  0  0  0  0
    5.0915   -2.8075    0.6525 C   0  0  0  0  0  0  0  0  0  0  0  0
    6.6051   -2.8095    0.5246 C   0  0  0  0  0  0  0  0  0  0  0  0
    7.3214   -2.4962    1.6994 C   0  0  0  0  0  0  0  0  0  0  0  0
    8.7103   -2.4776    1.6936 C   0  0  0  0  0  0  0  0  0  0  0  0
    9.4191   -2.1870    2.8225 O   0  0  0  0  0  0  0  0  0  0  0  0
    9.4048   -2.7518    0.5330 C   0  0  0  0  0  0  0  0  0  0  0  0
    8.7089   -3.0572   -0.6444 C   0  0  0  0  0  0  0  0  0  0  0  0
    9.4600   -3.2846   -1.7656 O   0  0  0  0  0  0  0  0  0  0  0  0
    7.2970   -3.1031   -0.6915 C   0  0  0  0  0  0  0  0  0  0  0  0
    6.5570   -3.4508   -1.9970 C   0  0  0  0  0  0  0  0  0  0  0  0
    7.1523   -4.1443   -2.8803 O   0  0  0  0  0  0  0  0  0  0  0  0
    5.3571   -3.0391   -2.1230 O   0  5  0  0  0  0  0  0  0  0  0  0
    0.6846    1.2908    0.1833 H   0  0  0  0  0  0  0  0  0  0  0  0
    0.6411   -0.0353    1.3586 H   0  0  0  0  0  0  0  0  0  0  0  0
    0.3755   -0.3519   -0.3691 H   0  0  0  0  0  0  0  0  0  0  0  0
    2.9698    0.7583    0.8174 H   0  0  0  0  0  0  0  0  0  0  0  0
    2.7180    0.3171   -0.8678 H   0  0  0  0  0  0  0  0  0  0  0  0
    2.6759   -1.6181    1.5139 H   0  0  0  0  0  0  0  0  0  0  0  0
    2.4814   -2.2143   -1.4875 H   0  0  0  0  0  0  0  0  0  0  0  0
    1.1735   -2.4032   -0.3044 H   0  0  0  0  0  0  0  0  0  0  0  0
    2.5781   -3.4323   -0.2012 H   0  0  0  0  0  0  0  0  0  0  0  0
    4.9098   -0.6979    1.0501 H   0  0  0  0  0  0  0  0  0  0  0  0
    4.7700   -1.0910   -0.6478 H   0  0  0  0  0  0  0  0  0  0  0  0
    4.6720   -3.6129    0.0446 H   0  0  0  0  0  0  0  0  0  0  0  0
    4.8232   -3.0898    1.6801 H   0  0  0  0  0  0  0  0  0  0  0  0
    6.7756   -2.2675    2.6113 H   0  0  0  0  0  0  0  0  0  0  0  0
    8.7832   -2.0653    3.5450 H   0  0  0  0  0  0  0  0  0  0  0  0
   10.4895   -2.7290    0.5502 H   0  0  0  0  0  0  0  0  0  0  0  0
   10.3929   -3.1209   -1.5821 H   0  0  0  0  0  0  0  0  0  0  0  0
  1  2  1  0  0  0  0
  1 18  1  0  0  0  0
  1 19  1  0  0  0  0
  1 20  1  0  0  0  0
  2  3  1  0  0  0  0
  2 21  1  0  0  0  0
  2 22  1  0  0  0  0
  3  4  1  0  0  0  0
  3  5  1  0  0  0  0
  3 23  1  0  0  0  0
  4 24  1  0  0  0  0
  4 25  1  0  0  0  0
  4 26  1  0  0  0  0
  5  6  1  0  0  0  0
  5 27  1  0  0  0  0
  5 28  1  0  0  0  0
  6  7  1  0  0  0  0
  6 29  1  0  0  0  0
  6 30  1  0  0  0  0
  7  8  1  0  0  0  0
  7 14  2  0  0  0  0
  8  9  2  0  0  0  0
  8 31  1  0  0  0  0
  9 10  1  0  0  0  0
  9 11  1  0  0  0  0
 10 32  1  0  0  0  0
 11 12  2  0  0  0  0
 11 33  1  0  0  0  0
 12 13  1  0  0  0  0
 12 14  1  0  0  0  0
 13 34  1  0  0  0  0
 14 15  1  0  0  0  0
 15 16  2  0  0  0  0
 15 17  1  0  0  0  0
M  CHG  1  17  -1
M  END
$$$$
