
 OpenBabel06162213003D

 29 29  0  0  0  0  0  0  0  0999 V2000
    2.2760    3.2348   -4.9764 C   0  0  0  0  0  0  0  0  0  0  0  0
    2.9105    2.1400   -4.5387 C   0  0  0  0  0  0  0  0  0  0  0  0
    3.3733    1.9295   -3.1237 C   0  0  0  0  0  0  0  0  0  0  0  0
    4.8894    1.7369   -3.0488 C   0  0  0  0  0  0  0  0  0  0  0  0
    5.3379    1.4760   -1.6059 C   0  0  0  0  0  0  0  0  0  0  0  0
    6.8345    1.2558   -1.4921 C   0  0  0  0  0  0  0  0  0  0  0  0
    7.6460    2.3955   -1.3087 C   0  0  0  0  0  0  0  0  0  0  0  0
    9.0209    2.2682   -1.1704 C   0  0  0  0  0  0  0  0  0  0  0  0
    9.8182    3.3620   -0.9858 O   0  0  0  0  0  0  0  0  0  0  0  0
    9.6224    1.0267   -1.2278 C   0  0  0  0  0  0  0  0  0  0  0  0
    8.8350   -0.1059   -1.4450 C   0  0  0  0  0  0  0  0  0  0  0  0
    9.5078   -1.2873   -1.5984 O   0  0  0  0  0  0  0  0  0  0  0  0
    7.4340   -0.0316   -1.5613 C   0  0  0  0  0  0  0  0  0  0  0  0
    6.6041   -1.2963   -1.7058 C   0  0  0  0  0  0  0  0  0  0  0  0
    6.8738   -2.2625   -0.9221 O   0  0  0  0  0  0  0  0  0  0  0  0
    5.6556   -1.2837   -2.5553 O   0  5  0  0  0  0  0  0  0  0  0  0
    1.9642    3.3144   -6.0130 H   0  0  0  0  0  0  0  0  0  0  0  0
    2.0550    4.0655   -4.3146 H   0  0  0  0  0  0  0  0  0  0  0  0
    3.1089    1.3234   -5.2321 H   0  0  0  0  0  0  0  0  0  0  0  0
    2.8643    1.0446   -2.7235 H   0  0  0  0  0  0  0  0  0  0  0  0
    3.0797    2.7786   -2.4943 H   0  0  0  0  0  0  0  0  0  0  0  0
    5.3952    2.6292   -3.4402 H   0  0  0  0  0  0  0  0  0  0  0  0
    5.1892    0.9087   -3.7011 H   0  0  0  0  0  0  0  0  0  0  0  0
    4.7871    0.6411   -1.1585 H   0  0  0  0  0  0  0  0  0  0  0  0
    5.0649    2.3444   -0.9896 H   0  0  0  0  0  0  0  0  0  0  0  0
    7.1779    3.3738   -1.2717 H   0  0  0  0  0  0  0  0  0  0  0  0
    9.2581    4.1499   -1.0548 H   0  0  0  0  0  0  0  0  0  0  0  0
   10.6995    0.9396   -1.1356 H   0  0  0  0  0  0  0  0  0  0  0  0
   10.0440   -1.4015   -0.7983 H   0  0  0  0  0  0  0  0  0  0  0  0
  1  2  2  0  0  0  0
  1 17  1  0  0  0  0
  1 18  1  0  0  0  0
  2  3  1  0  0  0  0
  2 19  1  0  0  0  0
  3  4  1  0  0  0  0
  3 20  1  0  0  0  0
  3 21  1  0  0  0  0
  4  5  1  0  0  0  0
  4 22  1  0  0  0  0
  4 23  1  0  0  0  0
  5  6  1  0  0  0  0
  5 24  1  0  0  0  0
  5 25  1  0  0  0  0
  6  7  1  0  0  0  0
  6 13  2  0  0  0  0
  7  8  2  0  0  0  0
  7 26  1  0  0  0  0
  8  9  1  0  0  0  0
  8 10  1  0  0  0  0
  9 27  1  0  0  0  0
 10 11  2  0  0  0  0
 10 28  1  0  0  0  0
 11 12  1  0  0  0  0
 11 13  1  0  0  0  0
 12 29  1  0  0  0  0
 13 14  1  0  0  0  0
 14 15  2  0  0  0  0
 14 16  1  0  0  0  0
M  CHG  1  16  -1
M  END
$$$$
