
 OpenBabel06162213013D

 30 30  0  0  0  0  0  0  0  0999 V2000
    1.0165   -0.0525    0.1754 C   0  0  0  0  0  0  0  0  0  0  0  0
    2.3169   -0.0105    0.0909 C   0  0  0  0  0  0  0  0  0  0  0  0
    3.8330    0.0386   -0.0075 C   0  0  0  0  0  0  0  0  0  0  0  0
    4.3423   -1.2298   -0.6660 C   0  0  0  0  0  0  0  0  0  0  0  0
    5.8588   -1.1949   -0.7712 C   0  0  0  0  0  0  0  0  0  0  0  0
    6.3701   -2.4740   -1.4265 C   0  0  0  0  0  0  0  0  0  0  0  0
    7.8781   -2.4621   -1.5467 C   0  0  0  0  0  0  0  0  0  0  0  0
    8.4249   -1.8733   -2.7150 C   0  0  0  0  0  0  0  0  0  0  0  0
    9.7995   -1.8298   -2.9014 C   0  0  0  0  0  0  0  0  0  0  0  0
   10.3672   -1.2748   -4.0140 O   0  0  0  0  0  0  0  0  0  0  0  0
   10.6426   -2.3685   -1.9454 C   0  0  0  0  0  0  0  0  0  0  0  0
   10.1118   -2.9570   -0.7826 C   0  0  0  0  0  0  0  0  0  0  0  0
   10.9968   -3.4749    0.1183 O   0  0  0  0  0  0  0  0  0  0  0  0
    8.7212   -3.0077   -0.5325 C   0  0  0  0  0  0  0  0  0  0  0  0
    8.1727   -3.6592    0.7689 C   0  0  0  0  0  0  0  0  0  0  0  0
    8.8978   -4.4755    1.4041 O   0  0  0  0  0  0  0  0  0  0  0  0
    6.9817   -3.3510    1.1330 O   0  5  0  0  0  0  0  0  0  0  0  0
   -0.0457   -0.0894    0.2400 H   0  0  0  0  0  0  0  0  0  0  0  0
    4.2481    0.1455    1.0011 H   0  0  0  0  0  0  0  0  0  0  0  0
    4.1218    0.9230   -0.5864 H   0  0  0  0  0  0  0  0  0  0  0  0
    3.8999   -1.3357   -1.6646 H   0  0  0  0  0  0  0  0  0  0  0  0
    4.0287   -2.1063   -0.0846 H   0  0  0  0  0  0  0  0  0  0  0  0
    6.2938   -1.0862    0.2292 H   0  0  0  0  0  0  0  0  0  0  0  0
    6.1686   -0.3077   -1.3378 H   0  0  0  0  0  0  0  0  0  0  0  0
    5.9136   -2.6161   -2.4162 H   0  0  0  0  0  0  0  0  0  0  0  0
    6.0371   -3.3573   -0.8782 H   0  0  0  0  0  0  0  0  0  0  0  0
    7.7577   -1.4764   -3.4757 H   0  0  0  0  0  0  0  0  0  0  0  0
    9.6589   -0.9255   -4.5779 H   0  0  0  0  0  0  0  0  0  0  0  0
   11.7135   -2.3356   -2.1119 H   0  0  0  0  0  0  0  0  0  0  0  0
   11.9061   -3.3580   -0.1808 H   0  0  0  0  0  0  0  0  0  0  0  0
  1  2  3  0  0  0  0
  1 18  1  0  0  0  0
  2  3  1  0  0  0  0
  3  4  1  0  0  0  0
  3 19  1  0  0  0  0
  3 20  1  0  0  0  0
  4  5  1  0  0  0  0
  4 21  1  0  0  0  0
  4 22  1  0  0  0  0
  5  6  1  0  0  0  0
  5 23  1  0  0  0  0
  5 24  1  0  0  0  0
  6  7  1  0  0  0  0
  6 25  1  0  0  0  0
  6 26  1  0  0  0  0
  7  8  1  0  0  0  0
  7 14  2  0  0  0  0
  8  9  2  0  0  0  0
  8 27  1  0  0  0  0
  9 10  1  0  0  0  0
  9 11  1  0  0  0  0
 10 28  1  0  0  0  0
 11 12  2  0  0  0  0
 11 29  1  0  0  0  0
 12 13  1  0  0  0  0
 12 14  1  0  0  0  0
 13 30  1  0  0  0  0
 14 15  1  0  0  0  0
 15 16  2  0  0  0  0
 15 17  1  0  0  0  0
M  CHG  1  17  -1
M  END
$$$$
