
 OpenBabel06162213093D

 52 54  0  0  1  0  0  0  0  0999 V2000
    1.6327    1.6956    0.2381 C   0  0  0  0  0  0  0  0  0  0  0  0
    2.9228    0.9294   -0.0182 C   0  0  0  0  0  0  0  0  0  0  0  0
    3.4504    1.1195   -1.4498 C   0  0  0  0  0  0  0  0  0  0  0  0
    4.8111    0.4197   -1.6324 C   0  0  0  0  0  0  0  0  0  0  0  0
    5.4151    0.4713   -3.0305 C   0  0  0  0  0  0  0  0  0  0  0  0
    5.5751   -0.7558   -3.6875 C   0  0  0  0  0  0  0  0  0  0  0  0
    6.0824   -0.8275   -4.9852 C   0  0  0  0  0  0  0  0  0  0  0  0
    6.2189   -2.1379   -5.4411 O   0  0  0  0  0  0  0  0  0  0  0  0
    6.8608   -2.1711   -6.7354 C   0  0  0  0  0  0  0  0  0  0  0  0
    6.8437   -3.6035   -7.2717 C   0  0  0  0  0  0  0  0  0  0  0  0
    8.3635   -1.8628   -6.4300 C   0  0  0  0  0  0  0  0  0  0  0  0
    5.9212   -1.2250   -7.5658 C   0  0  2  0  0  0  0  0  0  0  0  0
    5.5666   -1.4988   -9.0198 C   0  0  0  0  0  0  0  0  0  0  0  0
    6.6323   -1.1311  -10.0126 C   0  0  0  0  0  0  0  0  0  0  0  0
    7.6558   -0.1400   -9.5150 C   0  0  0  0  0  0  0  0  0  0  0  0
    8.7065    0.1019  -10.5770 C   0  0  0  0  0  0  0  0  0  0  0  0
    7.5868    0.4469   -8.2812 C   0  0  0  0  0  0  0  0  0  0  0  0
    6.3946    0.2107   -7.3246 C   0  0  3  0  0  0  0  0  0  0  0  0
    6.3654    0.3311   -5.7700 C   0  0  0  0  0  0  0  0  0  0  0  0
    6.2819    1.5509   -5.0783 C   0  0  0  0  0  0  0  0  0  0  0  0
    6.5748    2.6955   -5.7894 O   0  0  0  0  0  0  0  0  0  0  0  0
    5.8604    1.6426   -3.7005 C   0  0  0  0  0  0  0  0  0  0  0  0
    5.9063    2.9900   -2.9965 C   0  0  0  0  0  0  0  0  0  0  0  0
    5.8915    4.0096   -3.7807 O   0  0  0  0  0  0  0  0  0  0  0  0
    5.9879    3.0358   -1.7371 O   0  5  0  0  0  0  0  0  0  0  0  0
    1.3072    1.5484    1.2741 H   0  0  0  0  0  0  0  0  0  0  0  0
    0.8287    1.3511   -0.4195 H   0  0  0  0  0  0  0  0  0  0  0  0
    1.7730    2.7694    0.0805 H   0  0  0  0  0  0  0  0  0  0  0  0
    2.7442   -0.1351    0.1747 H   0  0  0  0  0  0  0  0  0  0  0  0
    3.6770    1.2645    0.7040 H   0  0  0  0  0  0  0  0  0  0  0  0
    3.5319    2.1889   -1.6650 H   0  0  0  0  0  0  0  0  0  0  0  0
    2.7211    0.7109   -2.1603 H   0  0  0  0  0  0  0  0  0  0  0  0
    4.6520   -0.6356   -1.3615 H   0  0  0  0  0  0  0  0  0  0  0  0
    5.5432    0.7765   -0.9017 H   0  0  0  0  0  0  0  0  0  0  0  0
    5.2849   -1.6827   -3.1983 H   0  0  0  0  0  0  0  0  0  0  0  0
    5.8396   -3.9282   -7.5556 H   0  0  0  0  0  0  0  0  0  0  0  0
    7.1907   -4.3102   -6.5097 H   0  0  0  0  0  0  0  0  0  0  0  0
    7.5031   -3.6892   -8.1443 H   0  0  0  0  0  0  0  0  0  0  0  0
    8.5224   -1.0559   -5.7053 H   0  0  0  0  0  0  0  0  0  0  0  0
    8.9599   -1.6558   -7.3193 H   0  0  0  0  0  0  0  0  0  0  0  0
    8.8186   -2.7309   -5.9300 H   0  0  0  0  0  0  0  0  0  0  0  0
    4.9212   -1.3019   -7.1132 H   0  0  0  0  0  0  0  0  0  0  0  0
    5.2373   -2.5300   -9.1735 H   0  0  0  0  0  0  0  0  0  0  0  0
    4.6834   -0.8916   -9.2566 H   0  0  0  0  0  0  0  0  0  0  0  0
    6.1470   -0.7263  -10.9165 H   0  0  0  0  0  0  0  0  0  0  0  0
    7.1373   -2.0545  -10.3282 H   0  0  0  0  0  0  0  0  0  0  0  0
    8.6441   -0.6681  -11.3639 H   0  0  0  0  0  0  0  0  0  0  0  0
    9.7244    0.0498  -10.1887 H   0  0  0  0  0  0  0  0  0  0  0  0
    8.5332    1.0550  -11.0869 H   0  0  0  0  0  0  0  0  0  0  0  0
    8.3440    1.1661   -7.9795 H   0  0  0  0  0  0  0  0  0  0  0  0
    5.6210    0.9116   -7.6722 H   0  0  0  0  0  0  0  0  0  0  0  0
    6.3651    3.4516   -5.1729 H   0  0  0  0  0  0  0  0  0  0  0  0
  1  2  1  0  0  0  0
  1 26  1  0  0  0  0
  1 27  1  0  0  0  0
  1 28  1  0  0  0  0
  2  3  1  0  0  0  0
  2 29  1  0  0  0  0
  2 30  1  0  0  0  0
  3  4  1  0  0  0  0
  3 31  1  0  0  0  0
  3 32  1  0  0  0  0
  4  5  1  0  0  0  0
  4 33  1  0  0  0  0
  4 34  1  0  0  0  0
  5  6  1  0  0  0  0
  5 22  2  0  0  0  0
  6  7  2  0  0  0  0
  6 35  1  0  0  0  0
  7  8  1  0  0  0  0
  7 19  1  0  0  0  0
  8  9  1  0  0  0  0
  9 12  1  0  0  0  0
  9 10  1  0  0  0  0
  9 11  1  0  0  0  0
 10 36  1  0  0  0  0
 10 37  1  0  0  0  0
 10 38  1  0  0  0  0
 11 39  1  0  0  0  0
 11 40  1  0  0  0  0
 11 41  1  0  0  0  0
 12 13  1  0  0  0  0
 12 18  1  0  0  0  0
 12 42  1  1  0  0  0
 13 14  1  0  0  0  0
 13 43  1  0  0  0  0
 13 44  1  0  0  0  0
 14 15  1  0  0  0  0
 14 45  1  0  0  0  0
 14 46  1  0  0  0  0
 15 17  2  0  0  0  0
 15 16  1  0  0  0  0
 16 47  1  0  0  0  0
 16 48  1  0  0  0  0
 16 49  1  0  0  0  0
 17 18  1  0  0  0  0
 17 50  1  0  0  0  0
 18 19  1  0  0  0  0
 18 51  1  0  0  0  0
 19 20  2  0  0  0  0
 20 22  1  0  0  0  0
 20 21  1  0  0  0  0
 21 52  1  0  0  0  0
 22 23  1  0  0  0  0
 23 24  2  0  0  0  0
 23 25  1  0  0  0  0
M  CHG  1  25  -1
M  END
$$$$
