
 OpenBabel06162213093D

 58 60  0  0  1  0  0  0  0  0999 V2000
   10.7856    1.9397   -3.6121 C   0  0  0  0  0  0  0  0  0  0  0  0
   10.4817    2.2742   -2.1573 C   0  0  0  0  0  0  0  0  0  0  0  0
    8.9737    2.3444   -1.9191 C   0  0  0  0  0  0  0  0  0  0  0  0
    8.6040    2.7070   -0.4737 C   0  0  0  0  0  0  0  0  0  0  0  0
    7.0759    2.8343   -0.3390 C   0  0  0  0  0  0  0  0  0  0  0  0
    6.5588    3.1474    1.0733 C   0  0  0  0  0  0  0  0  0  0  0  0
    7.0211    4.4607    1.6644 C   0  0  0  0  0  0  0  0  0  0  0  0
    8.0486    4.3643    2.6139 C   0  0  0  0  0  0  0  0  0  0  0  0
    8.6059    5.5009    3.1894 C   0  0  0  0  0  0  0  0  0  0  0  0
    9.6228    5.2150    4.1103 O   0  0  0  0  0  0  0  0  0  0  0  0
   10.0123    6.4471    4.7704 C   0  0  0  0  0  0  0  0  0  0  0  0
   11.1687    6.2647    5.7433 C   0  0  0  0  0  0  0  0  0  0  0  0
    8.7731    6.7059    5.7161 C   0  0  0  0  0  0  0  0  0  0  0  0
   10.4218    7.3091    3.5071 C   0  0  2  0  0  0  0  0  0  0  0  0
   11.6497    8.1977    3.4131 C   0  0  0  0  0  0  0  0  0  0  0  0
   11.5376    9.5004    4.1450 C   0  0  0  0  0  0  0  0  0  0  0  0
   10.1127    9.9090    4.4733 C   0  0  0  0  0  0  0  0  0  0  0  0
   10.1195   11.1363    5.3408 C   0  0  0  0  0  0  0  0  0  0  0  0
    9.0159    9.2154    4.0050 C   0  0  0  0  0  0  0  0  0  0  0  0
    9.1656    8.0255    3.0529 C   0  0  3  0  0  0  0  0  0  0  0  0
    8.2083    6.8239    2.8042 C   0  0  0  0  0  0  0  0  0  0  0  0
    7.1259    6.9099    1.9124 C   0  0  0  0  0  0  0  0  0  0  0  0
    6.7070    8.1781    1.5785 O   0  0  0  0  0  0  0  0  0  0  0  0
    6.5105    5.7514    1.3287 C   0  0  0  0  0  0  0  0  0  0  0  0
    5.3583    5.9535    0.3468 C   0  0  0  0  0  0  0  0  0  0  0  0
    5.1871    7.1472   -0.0626 O   0  0  0  0  0  0  0  0  0  0  0  0
    4.6400    4.9627    0.0126 O   0  5  0  0  0  0  0  0  0  0  0  0
   11.8665    1.8948   -3.7775 H   0  0  0  0  0  0  0  0  0  0  0  0
   10.3711    2.6987   -4.2840 H   0  0  0  0  0  0  0  0  0  0  0  0
   10.3590    0.9700   -3.8894 H   0  0  0  0  0  0  0  0  0  0  0  0
   10.9475    3.2339   -1.9061 H   0  0  0  0  0  0  0  0  0  0  0  0
   10.9319    1.5120   -1.5112 H   0  0  0  0  0  0  0  0  0  0  0  0
    8.5228    1.3774   -2.1761 H   0  0  0  0  0  0  0  0  0  0  0  0
    8.5400    3.0897   -2.5968 H   0  0  0  0  0  0  0  0  0  0  0  0
    9.0885    3.6517   -0.2021 H   0  0  0  0  0  0  0  0  0  0  0  0
    8.9827    1.9360    0.2089 H   0  0  0  0  0  0  0  0  0  0  0  0
    6.6293    1.8803   -0.6508 H   0  0  0  0  0  0  0  0  0  0  0  0
    6.7203    3.5932   -1.0432 H   0  0  0  0  0  0  0  0  0  0  0  0
    6.8836    2.3228    1.7295 H   0  0  0  0  0  0  0  0  0  0  0  0
    5.4652    3.0794    1.1066 H   0  0  0  0  0  0  0  0  0  0  0  0
    8.4666    3.3979    2.8774 H   0  0  0  0  0  0  0  0  0  0  0  0
   12.1530    6.3427    5.2816 H   0  0  0  0  0  0  0  0  0  0  0  0
   11.1273    5.2917    6.2412 H   0  0  0  0  0  0  0  0  0  0  0  0
   11.1289    7.0446    6.5224 H   0  0  0  0  0  0  0  0  0  0  0  0
    7.7891    6.4949    5.2736 H   0  0  0  0  0  0  0  0  0  0  0  0
    8.7418    7.6954    6.1669 H   0  0  0  0  0  0  0  0  0  0  0  0
    8.8051    5.9712    6.5387 H   0  0  0  0  0  0  0  0  0  0  0  0
   10.6898    6.5909    2.7124 H   0  0  0  0  0  0  0  0  0  0  0  0
   12.5643    7.6662    3.6901 H   0  0  0  0  0  0  0  0  0  0  0  0
   11.7921    8.4372    2.3468 H   0  0  0  0  0  0  0  0  0  0  0  0
   12.0015   10.2927    3.5410 H   0  0  0  0  0  0  0  0  0  0  0  0
   12.1250    9.4221    5.0658 H   0  0  0  0  0  0  0  0  0  0  0  0
   11.0868   11.2325    5.8754 H   0  0  0  0  0  0  0  0  0  0  0  0
    9.3551   11.1312    6.1155 H   0  0  0  0  0  0  0  0  0  0  0  0
   10.0388   12.0415    4.7281 H   0  0  0  0  0  0  0  0  0  0  0  0
    8.0167    9.5564    4.2756 H   0  0  0  0  0  0  0  0  0  0  0  0
    9.3243    8.4773    2.0640 H   0  0  0  0  0  0  0  0  0  0  0  0
    6.0129    8.0529    0.8729 H   0  0  0  0  0  0  0  0  0  0  0  0
  1  2  1  0  0  0  0
  1 28  1  0  0  0  0
  1 29  1  0  0  0  0
  1 30  1  0  0  0  0
  2  3  1  0  0  0  0
  2 31  1  0  0  0  0
  2 32  1  0  0  0  0
  3  4  1  0  0  0  0
  3 33  1  0  0  0  0
  3 34  1  0  0  0  0
  4  5  1  0  0  0  0
  4 35  1  0  0  0  0
  4 36  1  0  0  0  0
  5  6  1  0  0  0  0
  5 37  1  0  0  0  0
  5 38  1  0  0  0  0
  6  7  1  0  0  0  0
  6 39  1  0  0  0  0
  6 40  1  0  0  0  0
  7  8  1  0  0  0  0
  7 24  2  0  0  0  0
  8  9  2  0  0  0  0
  8 41  1  0  0  0  0
  9 10  1  0  0  0  0
  9 21  1  0  0  0  0
 10 11  1  0  0  0  0
 11 14  1  0  0  0  0
 11 12  1  0  0  0  0
 11 13  1  0  0  0  0
 12 42  1  0  0  0  0
 12 43  1  0  0  0  0
 12 44  1  0  0  0  0
 13 45  1  0  0  0  0
 13 46  1  0  0  0  0
 13 47  1  0  0  0  0
 14 15  1  0  0  0  0
 14 20  1  0  0  0  0
 14 48  1  6  0  0  0
 15 16  1  0  0  0  0
 15 49  1  0  0  0  0
 15 50  1  0  0  0  0
 16 17  1  0  0  0  0
 16 51  1  0  0  0  0
 16 52  1  0  0  0  0
 17 19  2  0  0  0  0
 17 18  1  0  0  0  0
 18 53  1  0  0  0  0
 18 54  1  0  0  0  0
 18 55  1  0  0  0  0
 19 20  1  0  0  0  0
 19 56  1  0  0  0  0
 20 21  1  0  0  0  0
 20 57  1  0  0  0  0
 21 22  2  0  0  0  0
 22 24  1  0  0  0  0
 22 23  1  0  0  0  0
 23 58  1  0  0  0  0
 24 25  1  0  0  0  0
 25 26  2  0  0  0  0
 25 27  1  0  0  0  0
M  CHG  1  27  -1
M  END
$$$$
