
 OpenBabel06162213103D

 58 60  0  0  1  0  0  0  0  0999 V2000
    1.0997    0.8665   -1.4161 C   0  0  0  0  0  0  0  0  0  0  0  0
    2.6146    0.8609   -1.2187 C   0  0  0  0  0  0  0  0  0  0  0  0
    3.1256    1.8603   -0.1496 C   0  0  3  0  0  0  0  0  0  0  0  0
    2.5128    1.5366    1.2177 C   0  0  0  0  0  0  0  0  0  0  0  0
    4.6858    1.8662   -0.1194 C   0  0  0  0  0  0  0  0  0  0  0  0
    5.2954    2.8738    0.8872 C   0  0  0  0  0  0  0  0  0  0  0  0
    6.8180    2.8894    0.9676 C   0  0  0  0  0  0  0  0  0  0  0  0
    7.3859    2.0469    1.9359 C   0  0  0  0  0  0  0  0  0  0  0  0
    8.7660    1.9724    2.1175 C   0  0  0  0  0  0  0  0  0  0  0  0
    9.1440    1.1334    3.1765 O   0  0  0  0  0  0  0  0  0  0  0  0
   10.5703    1.2556    3.4150 C   0  0  0  0  0  0  0  0  0  0  0  0
   11.0412    0.2801    4.4981 C   0  0  0  0  0  0  0  0  0  0  0  0
   10.6869    2.6727    4.0814 C   0  0  0  0  0  0  0  0  0  0  0  0
   11.1229    0.8740    1.9863 C   0  0  2  0  0  0  0  0  0  0  0  0
   12.3292   -0.0130    1.7475 C   0  0  0  0  0  0  0  0  0  0  0  0
   13.6669    0.6691    1.8612 C   0  0  0  0  0  0  0  0  0  0  0  0
   13.6067    2.1647    1.8990 C   0  0  0  0  0  0  0  0  0  0  0  0
   14.9719    2.7328    2.2728 C   0  0  0  0  0  0  0  0  0  0  0  0
   12.4733    2.8765    1.6130 C   0  0  0  0  0  0  0  0  0  0  0  0
   11.1689    2.1620    1.1762 C   0  0  3  0  0  0  0  0  0  0  0  0
    9.6942    2.6596    1.2708 C   0  0  0  0  0  0  0  0  0  0  0  0
    9.1214    3.5358    0.3387 C   0  0  0  0  0  0  0  0  0  0  0  0
    9.9992    4.2328   -0.4631 O   0  0  0  0  0  0  0  0  0  0  0  0
    7.6953    3.6825    0.1705 C   0  0  0  0  0  0  0  0  0  0  0  0
    7.1828    4.6531   -0.8897 C   0  0  0  0  0  0  0  0  0  0  0  0
    8.0414    5.0013   -1.7680 O   0  0  0  0  0  0  0  0  0  0  0  0
    5.9903    5.0752   -0.8304 O   0  5  0  0  0  0  0  0  0  0  0  0
    0.8254    0.2105   -2.2495 H   0  0  0  0  0  0  0  0  0  0  0  0
    0.7326    1.8719   -1.6441 H   0  0  0  0  0  0  0  0  0  0  0  0
    0.5702    0.4958   -0.5328 H   0  0  0  0  0  0  0  0  0  0  0  0
    3.0799    1.0972   -2.1831 H   0  0  0  0  0  0  0  0  0  0  0  0
    2.9273   -0.1576   -0.9571 H   0  0  0  0  0  0  0  0  0  0  0  0
    2.7912    2.8648   -0.4397 H   0  0  0  0  0  0  0  0  0  0  0  0
    2.7992    0.5347    1.5536 H   0  0  0  0  0  0  0  0  0  0  0  0
    1.4190    1.5817    1.1873 H   0  0  0  0  0  0  0  0  0  0  0  0
    2.8181    2.2577    1.9807 H   0  0  0  0  0  0  0  0  0  0  0  0
    5.0552    2.0980   -1.1266 H   0  0  0  0  0  0  0  0  0  0  0  0
    5.0424    0.8547    0.1148 H   0  0  0  0  0  0  0  0  0  0  0  0
    4.9340    2.6105    1.8858 H   0  0  0  0  0  0  0  0  0  0  0  0
    4.8871    3.8717    0.7253 H   0  0  0  0  0  0  0  0  0  0  0  0
    6.7472    1.4219    2.5556 H   0  0  0  0  0  0  0  0  0  0  0  0
   11.1115   -0.7445    4.1441 H   0  0  0  0  0  0  0  0  0  0  0  0
   10.3483    0.2677    5.3502 H   0  0  0  0  0  0  0  0  0  0  0  0
   12.0361    0.5864    4.8602 H   0  0  0  0  0  0  0  0  0  0  0  0
   10.0414    3.4445    3.6590 H   0  0  0  0  0  0  0  0  0  0  0  0
   11.7044    3.0625    4.1471 H   0  0  0  0  0  0  0  0  0  0  0  0
   10.3062    2.6090    5.1220 H   0  0  0  0  0  0  0  0  0  0  0  0
   10.3513    0.2373    1.5213 H   0  0  0  0  0  0  0  0  0  0  0  0
   12.2941   -0.9168    2.3642 H   0  0  0  0  0  0  0  0  0  0  0  0
   12.2510   -0.3963    0.7149 H   0  0  0  0  0  0  0  0  0  0  0  0
   14.3005    0.3585    1.0194 H   0  0  0  0  0  0  0  0  0  0  0  0
   14.1512    0.2814    2.7673 H   0  0  0  0  0  0  0  0  0  0  0  0
   15.5349    1.9970    2.8564 H   0  0  0  0  0  0  0  0  0  0  0  0
   14.9165    3.6335    2.8890 H   0  0  0  0  0  0  0  0  0  0  0  0
   15.5629    2.9185    1.3708 H   0  0  0  0  0  0  0  0  0  0  0  0
   12.4706    3.9597    1.6484 H   0  0  0  0  0  0  0  0  0  0  0  0
   11.3225    1.9295    0.1129 H   0  0  0  0  0  0  0  0  0  0  0  0
    9.4328    4.6850   -1.1487 H   0  0  0  0  0  0  0  0  0  0  0  0
  1  2  1  0  0  0  0
  1 28  1  0  0  0  0
  1 29  1  0  0  0  0
  1 30  1  0  0  0  0
  2  3  1  0  0  0  0
  2 31  1  0  0  0  0
  2 32  1  0  0  0  0
  3  4  1  0  0  0  0
  3  5  1  0  0  0  0
  3 33  1  0  0  0  0
  4 34  1  0  0  0  0
  4 35  1  0  0  0  0
  4 36  1  0  0  0  0
  5  6  1  0  0  0  0
  5 37  1  0  0  0  0
  5 38  1  0  0  0  0
  6  7  1  0  0  0  0
  6 39  1  0  0  0  0
  6 40  1  0  0  0  0
  7  8  1  0  0  0  0
  7 24  2  0  0  0  0
  8  9  2  0  0  0  0
  8 41  1  0  0  0  0
  9 10  1  0  0  0  0
  9 21  1  0  0  0  0
 10 11  1  0  0  0  0
 11 14  1  0  0  0  0
 11 12  1  0  0  0  0
 11 13  1  0  0  0  0
 12 42  1  0  0  0  0
 12 43  1  0  0  0  0
 12 44  1  0  0  0  0
 13 45  1  0  0  0  0
 13 46  1  0  0  0  0
 13 47  1  0  0  0  0
 14 15  1  0  0  0  0
 14 20  1  0  0  0  0
 14 48  1  6  0  0  0
 15 16  1  0  0  0  0
 15 49  1  0  0  0  0
 15 50  1  0  0  0  0
 16 17  1  0  0  0  0
 16 51  1  0  0  0  0
 16 52  1  0  0  0  0
 17 19  2  0  0  0  0
 17 18  1  0  0  0  0
 18 53  1  0  0  0  0
 18 54  1  0  0  0  0
 18 55  1  0  0  0  0
 19 20  1  0  0  0  0
 19 56  1  0  0  0  0
 20 21  1  0  0  0  0
 20 57  1  0  0  0  0
 21 22  2  0  0  0  0
 22 24  1  0  0  0  0
 22 23  1  0  0  0  0
 23 58  1  0  0  0  0
 24 25  1  0  0  0  0
 25 26  2  0  0  0  0
 25 27  1  0  0  0  0
M  CHG  1  27  -1
M  END
$$$$
