
 OpenBabel06162213093D

 55 57  0  0  1  0  0  0  0  0999 V2000
    5.0929   -2.1622   -7.4950 C   0  0  0  0  0  0  0  0  0  0  0  0
    4.7104   -1.1130   -6.4616 C   0  0  0  0  0  0  0  0  0  0  0  0
    5.3232   -1.4145   -5.0919 C   0  0  0  0  0  0  0  0  0  0  0  0
    4.9726   -0.3236   -4.0695 C   0  0  0  0  0  0  0  0  0  0  0  0
    5.5091   -0.5955   -2.6569 C   0  0  0  0  0  0  0  0  0  0  0  0
    7.0213   -0.6622   -2.5425 C   0  0  0  0  0  0  0  0  0  0  0  0
    7.5667   -1.9512   -2.5717 C   0  0  0  0  0  0  0  0  0  0  0  0
    8.9388   -2.1429   -2.5381 C   0  0  0  0  0  0  0  0  0  0  0  0
    9.3216   -3.5147   -2.5455 O   0  0  0  0  0  0  0  0  0  0  0  0
   10.7326   -3.5585   -2.1948 C   0  0  0  0  0  0  0  0  0  0  0  0
   11.3994   -4.9405   -2.1438 C   0  0  0  0  0  0  0  0  0  0  0  0
   10.5964   -3.1805   -0.6554 C   0  0  0  0  0  0  0  0  0  0  0  0
   11.2631   -2.7076   -3.4298 C   0  0  2  0  0  0  0  0  0  0  0  0
   12.4099   -3.1000   -4.3451 C   0  0  0  0  0  0  0  0  0  0  0  0
   13.7723   -2.8679   -3.7605 C   0  0  0  0  0  0  0  0  0  0  0  0
   13.7860   -1.9471   -2.5583 C   0  0  0  0  0  0  0  0  0  0  0  0
   15.1765   -1.9242   -1.9613 C   0  0  0  0  0  0  0  0  0  0  0  0
   12.6838   -1.2473   -2.1467 C   0  0  0  0  0  0  0  0  0  0  0  0
   11.3605   -1.2810   -2.9503 C   0  0  3  0  0  0  0  0  0  0  0  0
    9.8798   -1.0437   -2.5123 C   0  0  0  0  0  0  0  0  0  0  0  0
    9.3188    0.2371   -2.4396 C   0  0  0  0  0  0  0  0  0  0  0  0
   10.1961    1.3001   -2.4360 O   0  0  0  0  0  0  0  0  0  0  0  0
    7.8986    0.4610   -2.4450 C   0  0  0  0  0  0  0  0  0  0  0  0
    7.3848    1.8983   -2.4082 C   0  0  0  0  0  0  0  0  0  0  0  0
    8.2376    2.7913   -2.7263 O   0  0  0  0  0  0  0  0  0  0  0  0
    6.1780    2.1087   -2.0531 O   0  5  0  0  0  0  0  0  0  0  0  0
    4.6611   -1.9090   -8.4687 H   0  0  0  0  0  0  0  0  0  0  0  0
    4.7238   -3.1518   -7.2076 H   0  0  0  0  0  0  0  0  0  0  0  0
    6.1798   -2.2210   -7.6126 H   0  0  0  0  0  0  0  0  0  0  0  0
    3.6181   -1.0697   -6.3810 H   0  0  0  0  0  0  0  0  0  0  0  0
    5.0499   -0.1308   -6.8098 H   0  0  0  0  0  0  0  0  0  0  0  0
    6.4106   -1.4910   -5.2011 H   0  0  0  0  0  0  0  0  0  0  0  0
    4.9616   -2.3872   -4.7355 H   0  0  0  0  0  0  0  0  0  0  0  0
    3.8790   -0.2536   -4.0024 H   0  0  0  0  0  0  0  0  0  0  0  0
    5.3317    0.6470   -4.4292 H   0  0  0  0  0  0  0  0  0  0  0  0
    5.0868   -1.5523   -2.3140 H   0  0  0  0  0  0  0  0  0  0  0  0
    5.0947    0.1239   -1.9474 H   0  0  0  0  0  0  0  0  0  0  0  0
    6.9242   -2.8231   -2.6537 H   0  0  0  0  0  0  0  0  0  0  0  0
   12.2828   -5.0167   -2.7770 H   0  0  0  0  0  0  0  0  0  0  0  0
   10.7161   -5.7572   -2.3674 H   0  0  0  0  0  0  0  0  0  0  0  0
   11.8369   -5.1194   -1.1492 H   0  0  0  0  0  0  0  0  0  0  0  0
    9.7568   -2.5199   -0.3902 H   0  0  0  0  0  0  0  0  0  0  0  0
   11.4969   -2.7934   -0.1870 H   0  0  0  0  0  0  0  0  0  0  0  0
   10.2860   -4.0884   -0.1077 H   0  0  0  0  0  0  0  0  0  0  0  0
   10.4735   -2.7270   -4.2050 H   0  0  0  0  0  0  0  0  0  0  0  0
   12.2906   -4.1250   -4.7137 H   0  0  0  0  0  0  0  0  0  0  0  0
   12.3326   -2.4784   -5.2519 H   0  0  0  0  0  0  0  0  0  0  0  0
   14.4319   -2.4631   -4.5390 H   0  0  0  0  0  0  0  0  0  0  0  0
   14.1874   -3.8453   -3.4882 H   0  0  0  0  0  0  0  0  0  0  0  0
   15.7087   -2.8620   -2.1912 H   0  0  0  0  0  0  0  0  0  0  0  0
   15.1817   -1.8258   -0.8761 H   0  0  0  0  0  0  0  0  0  0  0  0
   15.7711   -1.1275   -2.4222 H   0  0  0  0  0  0  0  0  0  0  0  0
   12.7475   -0.5736   -1.2950 H   0  0  0  0  0  0  0  0  0  0  0  0
   11.5245   -0.5976   -3.7965 H   0  0  0  0  0  0  0  0  0  0  0  0
    9.6294    2.1133   -2.5578 H   0  0  0  0  0  0  0  0  0  0  0  0
  1  2  1  0  0  0  0
  1 27  1  0  0  0  0
  1 28  1  0  0  0  0
  1 29  1  0  0  0  0
  2  3  1  0  0  0  0
  2 30  1  0  0  0  0
  2 31  1  0  0  0  0
  3  4  1  0  0  0  0
  3 32  1  0  0  0  0
  3 33  1  0  0  0  0
  4  5  1  0  0  0  0
  4 34  1  0  0  0  0
  4 35  1  0  0  0  0
  5  6  1  0  0  0  0
  5 36  1  0  0  0  0
  5 37  1  0  0  0  0
  6  7  1  0  0  0  0
  6 23  2  0  0  0  0
  7  8  2  0  0  0  0
  7 38  1  0  0  0  0
  8  9  1  0  0  0  0
  8 20  1  0  0  0  0
  9 10  1  0  0  0  0
 10 13  1  0  0  0  0
 10 11  1  0  0  0  0
 10 12  1  0  0  0  0
 11 39  1  0  0  0  0
 11 40  1  0  0  0  0
 11 41  1  0  0  0  0
 12 42  1  0  0  0  0
 12 43  1  0  0  0  0
 12 44  1  0  0  0  0
 13 14  1  0  0  0  0
 13 19  1  0  0  0  0
 13 45  1  6  0  0  0
 14 15  1  0  0  0  0
 14 46  1  0  0  0  0
 14 47  1  0  0  0  0
 15 16  1  0  0  0  0
 15 48  1  0  0  0  0
 15 49  1  0  0  0  0
 16 18  2  0  0  0  0
 16 17  1  0  0  0  0
 17 50  1  0  0  0  0
 17 51  1  0  0  0  0
 17 52  1  0  0  0  0
 18 19  1  0  0  0  0
 18 53  1  0  0  0  0
 19 20  1  0  0  0  0
 19 54  1  0  0  0  0
 20 21  2  0  0  0  0
 21 23  1  0  0  0  0
 21 22  1  0  0  0  0
 22 55  1  0  0  0  0
 23 24  1  0  0  0  0
 24 25  2  0  0  0  0
 24 26  1  0  0  0  0
M  CHG  1  26  -1
M  END
$$$$
