ROOT
ATOM      7  C7  UNL A   1       8.158   2.591  -1.399  1.00  0.00    +0.000 C 
ATOM      8  C8  UNL A   1       8.850   3.439  -0.498  1.00  0.00    +0.000 C 
ATOM      9  C9  UNL A   1      10.245   3.523  -0.558  1.00  0.00    +0.000 C 
ATOM     10  O1  UNL A   1      10.715   4.462   0.467  1.00  0.00    +0.000 O 
ATOM     11  C10 UNL A   1      11.979   4.872  -0.061  1.00  0.00    +0.000 C 
ATOM     14  C13 UNL A   1      12.609   3.341   0.093  1.00  0.00    +0.000 C 
ATOM     15  C14 UNL A   1      13.735   3.141   1.093  1.00  0.00    +0.000 C 
ATOM     16  C15 UNL A   1      15.187   3.401   0.982  1.00  0.00    +0.000 C 
ATOM     17  C16 UNL A   1      15.509   3.543  -0.522  1.00  0.00    +0.000 C 
ATOM     19  C18 UNL A   1      14.483   3.366  -1.510  1.00  0.00    +0.000 C 
ATOM     20  C19 UNL A   1      12.848   2.747  -1.240  1.00  0.00    +0.000 C 
ATOM     21  C20 UNL A   1      11.164   2.865  -1.556  1.00  0.00    +0.000 C 
ATOM     22  C21 UNL A   1      10.419   1.984  -2.389  1.00  0.00    +0.000 C 
ATOM     24  C22 UNL A   1       8.937   1.823  -2.321  1.00  0.00    +0.000 C 
ATOM     37  H10 UNL A   1       8.302   3.984   0.243  1.00  0.00    +0.000 H 
ATOM     44  H17 UNL A   1      11.899   2.683   0.639  1.00  0.00    +0.000 H 
ATOM     45  H18 UNL A   1      13.821   4.116   0.697  1.00  0.00    +0.000 H 
ATOM     46  H19 UNL A   1      13.868   2.087   0.821  1.00  0.00    +0.000 H 
ATOM     47  H20 UNL A   1      15.776   2.661   1.533  1.00  0.00    +0.000 H 
ATOM     48  H21 UNL A   1      15.405   4.360   1.514  1.00  0.00    +0.000 H 
ATOM     52  H25 UNL A   1      14.757   3.481  -2.556  1.00  0.00    +0.000 H 
ATOM     53  H26 UNL A   1      13.016   1.660  -1.227  1.00  0.00    +0.000 H 
ENDROOT
BRANCH    7    6
ATOM     35  H8  UNL A   1       6.265   3.549  -0.970  1.00  0.00    +0.000 H 
ATOM     36  H9  UNL A   1       6.186   2.457  -2.286  1.00  0.00    +0.000 H 
ATOM      6  C6  UNL A   1       6.633   2.563  -1.288  1.00  0.00    +0.000 C 
BRANCH    6    5
ATOM     33  H6  UNL A   1       4.931   1.567  -0.375  1.00  0.00    +0.000 H 
ATOM     34  H7  UNL A   1       6.278   0.491  -0.649  1.00  0.00    +0.000 H 
ATOM      5  C5  UNL A   1       6.028   1.506  -0.330  1.00  0.00    +0.000 C 
BRANCH    5    4
ATOM      4  C4  UNL A   1       6.477   1.669   1.122  1.00  0.00    +0.000 C 
ATOM     31  H4  UNL A   1       7.569   1.598   1.179  1.00  0.00    +0.000 H 
ATOM     32  H5  UNL A   1       6.198   2.668   1.482  1.00  0.00    +0.000 H 
BRANCH    4    3
ATOM      3  C3  UNL A   1       5.867   0.600   2.030  1.00  0.00    +0.000 C 
ATOM     29  H2  UNL A   1       4.774   0.658   2.004  1.00  0.00    +0.000 H 
ATOM     30  H3  UNL A   1       6.157  -0.401   1.687  1.00  0.00    +0.000 H 
BRANCH    3    2
ATOM      2  C2  UNL A   1       6.332   0.774   3.467  1.00  0.00    +0.000 C 
BRANCH    2    1
ATOM      1  C1  UNL A   1       6.731   0.924   4.699  1.00  0.00    +0.000 C 
ATOM     28  H1  UNL A   1       7.056   1.053   5.705  1.00  0.00    +0.000 H 
ENDBRANCH    2    1
ENDBRANCH    3    2
ENDBRANCH    4    3
ENDBRANCH    5    4
ENDBRANCH    6    5
ENDBRANCH    7    6
BRANCH   11   12
ATOM     12  C11 UNL A   1      12.922   6.007   0.506  1.00  0.00    +0.000 C 
ATOM     38  H11 UNL A   1      13.793   5.757   1.114  1.00  0.00    +0.000 H 
ATOM     39  H12 UNL A   1      12.407   6.781   1.069  1.00  0.00    +0.000 H 
ATOM     40  H13 UNL A   1      13.425   6.466  -0.369  1.00  0.00    +0.000 H 
ENDBRANCH   11   12
BRANCH   11   13
ATOM     41  H14 UNL A   1      10.340   5.532  -1.567  1.00  0.00    +0.000 H 
ATOM     42  H15 UNL A   1      12.003   5.926  -2.072  1.00  0.00    +0.000 H 
ATOM     43  H16 UNL A   1      11.124   6.759  -0.763  1.00  0.00    +0.000 H 
ATOM     13  C12 UNL A   1      11.350   5.767  -1.209  1.00  0.00    +0.000 C 
ENDBRANCH   11   13
BRANCH   17   18
ATOM     49  H22 UNL A   1      17.218   4.319   0.644  1.00  0.00    +0.000 H 
ATOM     18  C17 UNL A   1      17.003   3.991  -0.409  1.00  0.00    +0.000 C 
ATOM     51  H24 UNL A   1      17.733   3.172  -0.488  1.00  0.00    +0.000 H 
ATOM     50  H23 UNL A   1      17.299   4.889  -0.951  1.00  0.00    +0.000 H 
ENDBRANCH   17   18
BRANCH   22   23
ATOM     54  H27 UNL A   1      11.829   0.773  -2.861  1.00  0.00    +0.000 H 
ATOM     23  O2  UNL A   1      11.092   1.199  -3.300  1.00  0.00    +0.000 O 
ENDBRANCH   22   23
BRANCH   24   25
ATOM     25  C23 UNL A   1       8.154   0.737  -3.157  1.00  0.00    +0.000 C 
ATOM     26  O3  UNL A   1       8.706   0.385  -4.253  1.00  0.00    +0.000 O 
ATOM     27  O4  UNL A   1       7.078   0.334  -2.762  1.00  0.00    +0.000 O 
ENDBRANCH   24   25
TORSDOF 11