MODEL 1
REMARK VINA RESULT:    -6.831      0.000      0.000
REMARK INTER + INTRA:         -10.873
REMARK INTER:                 -10.196
REMARK INTRA:                  -0.676
REMARK UNBOUND:                -0.647
ROOT
ATOM      7  C7  UNL A   1      36.140  43.340 293.401  1.00  0.00    +0.000 C 
ATOM      8  C8  UNL A   1      35.577  43.592 294.678  1.00  0.00    +0.000 C 
ATOM      9  C9  UNL A   1      35.626  44.883 295.214  1.00  0.00    +0.000 C 
ATOM     10  O1  UNL A   1      34.978  44.881 296.531  1.00  0.00    +0.000 O 
ATOM     11  C10 UNL A   1      34.598  46.252 296.678  1.00  0.00    +0.000 C 
ATOM     14  C13 UNL A   1      36.183  46.752 296.711  1.00  0.00    +0.000 C 
ATOM     15  C14 UNL A   1      36.705  47.351 298.006  1.00  0.00    +0.000 C 
ATOM     16  C15 UNL A   1      36.577  48.716 298.563  1.00  0.00    +0.000 C 
ATOM     17  C16 UNL A   1      36.154  49.642 297.401  1.00  0.00    +0.000 C 
ATOM     19  C18 UNL A   1      36.012  49.127 296.069  1.00  0.00    +0.000 C 
ATOM     20  C19 UNL A   1      36.503  47.528 295.494  1.00  0.00    +0.000 C 
ATOM     21  C20 UNL A   1      36.149  46.134 294.555  1.00  0.00    +0.000 C 
ATOM     22  C21 UNL A   1      36.752  45.806 293.309  1.00  0.00    +0.000 C 
ATOM     24  C22 UNL A   1      36.771  44.432 292.725  1.00  0.00    +0.000 C 
ATOM     37  H10 UNL A   1      35.148  42.785 295.235  1.00  0.00    +0.000 H 
ATOM     44  H17 UNL A   1      36.865  45.875 296.748  1.00  0.00    +0.000 H 
ATOM     45  H18 UNL A   1      35.682  47.600 297.921  1.00  0.00    +0.000 H 
ATOM     46  H19 UNL A   1      37.685  47.582 297.573  1.00  0.00    +0.000 H 
ATOM     47  H20 UNL A   1      37.474  49.015 299.115  1.00  0.00    +0.000 H 
ATOM     48  H21 UNL A   1      35.780  48.693 299.346  1.00  0.00    +0.000 H 
ATOM     52  H25 UNL A   1      35.707  49.816 295.286  1.00  0.00    +0.000 H 
ATOM     53  H26 UNL A   1      37.580  47.670 295.318  1.00  0.00    +0.000 H 
ENDROOT
BRANCH    7    6
ATOM     35  H8  UNL A   1      34.976  41.634 292.754  1.00  0.00    +0.000 H 
ATOM     36  H9  UNL A   1      36.402  41.867 291.835  1.00  0.00    +0.000 H 
ATOM      6  C6  UNL A   1      36.034  41.910 292.869  1.00  0.00    +0.000 C 
BRANCH    6    5
ATOM     33  H6  UNL A   1      36.301  40.822 294.731  1.00  0.00    +0.000 H 
ATOM     34  H7  UNL A   1      36.495  39.810 293.321  1.00  0.00    +0.000 H 
ATOM      5  C5  UNL A   1      36.718  40.806 293.713  1.00  0.00    +0.000 C 
BRANCH    5    4
ATOM      4  C4  UNL A   1      38.238  40.952 293.795  1.00  0.00    +0.000 C 
ATOM     31  H4  UNL A   1      38.530  41.950 293.452  1.00  0.00    +0.000 H 
ATOM     32  H5  UNL A   1      38.559  40.862 294.841  1.00  0.00    +0.000 H 
BRANCH    4    3
ATOM      3  C3  UNL A   1      38.957  39.908 292.939  1.00  0.00    +0.000 C 
ATOM     29  H2  UNL A   1      38.723  40.058 291.880  1.00  0.00    +0.000 H 
ATOM     30  H3  UNL A   1      40.043  40.001 293.059  1.00  0.00    +0.000 H 
BRANCH    3    2
ATOM      2  C2  UNL A   1      38.545  38.499 293.336  1.00  0.00    +0.000 C 
BRANCH    2    1
ATOM      1  C1  UNL A   1      38.191  37.291 293.676  1.00  0.00    +0.000 C 
ATOM     28  H1  UNL A   1      37.897  36.305 293.951  1.00  0.00    +0.000 H 
ENDBRANCH    2    1
ENDBRANCH    3    2
ENDBRANCH    4    3
ENDBRANCH    5    4
ENDBRANCH    6    5
ENDBRANCH    7    6
BRANCH   11   12
ATOM     12  C11 UNL A   1      33.711  46.873 297.830  1.00  0.00    +0.000 C 
ATOM     38  H11 UNL A   1      33.735  47.944 298.037  1.00  0.00    +0.000 H 
ATOM     39  H12 UNL A   1      33.841  46.402 298.802  1.00  0.00    +0.000 H 
ATOM     40  H13 UNL A   1      32.656  46.763 297.510  1.00  0.00    +0.000 H 
ENDBRANCH   11   12
BRANCH   11   13
ATOM     41  H14 UNL A   1      33.296  45.244 295.041  1.00  0.00    +0.000 H 
ATOM     42  H15 UNL A   1      33.359  47.022 294.938  1.00  0.00    +0.000 H 
ATOM     43  H16 UNL A   1      32.470  46.117 296.191  1.00  0.00    +0.000 H 
ATOM     13  C12 UNL A   1      33.421  46.168 295.619  1.00  0.00    +0.000 C 
ENDBRANCH   11   13
BRANCH   17   18
ATOM     49  H22 UNL A   1      35.021  51.501 297.776  1.00  0.00    +0.000 H 
ATOM     18  C17 UNL A   1      35.896  50.951 298.217  1.00  0.00    +0.000 C 
ATOM     51  H24 UNL A   1      35.505  50.788 299.232  1.00  0.00    +0.000 H 
ATOM     50  H23 UNL A   1      36.655  51.731 298.165  1.00  0.00    +0.000 H 
ENDBRANCH   17   18
BRANCH   22   23
ATOM     54  H27 UNL A   1      38.227  46.458 292.271  1.00  0.00    +0.000 H 
ATOM     23  O2  UNL A   1      37.392  46.796 292.596  1.00  0.00    +0.000 O 
ENDBRANCH   22   23
BRANCH   24   25
ATOM     25  C23 UNL A   1      37.570  44.070 291.413  1.00  0.00    +0.000 C 
ATOM     26  O3  UNL A   1      37.058  44.495 290.324  1.00  0.00    +0.000 O 
ATOM     27  O4  UNL A   1      38.572  43.386 291.487  1.00  0.00    +0.000 O 
ENDBRANCH   24   25
TORSDOF 11
ENDMDL
MODEL 2
REMARK VINA RESULT:    -6.812     14.101     16.304
REMARK INTER + INTRA:         -10.843
REMARK INTER:                 -10.105
REMARK INTRA:                  -0.738
REMARK UNBOUND:                -0.647
ROOT
ATOM      7  C7  UNL A   1      48.718  41.449 304.978  1.00  0.00    +0.000 C 
ATOM      8  C8  UNL A   1      48.773  40.323 304.118  1.00  0.00    +0.000 C 
ATOM      9  C9  UNL A   1      48.429  40.464 302.769  1.00  0.00    +0.000 C 
ATOM     10  O1  UNL A   1      48.570  39.167 302.098  1.00  0.00    +0.000 O 
ATOM     11  C10 UNL A   1      48.757  39.555 300.735  1.00  0.00    +0.000 C 
ATOM     14  C13 UNL A   1      47.226  40.195 300.642  1.00  0.00    +0.000 C 
ATOM     15  C14 UNL A   1      46.233  39.513 299.716  1.00  0.00    +0.000 C 
ATOM     16  C15 UNL A   1      46.041  39.622 298.253  1.00  0.00    +0.000 C 
ATOM     17  C16 UNL A   1      46.766  40.906 297.794  1.00  0.00    +0.000 C 
ATOM     19  C18 UNL A   1      47.411  41.763 298.748  1.00  0.00    +0.000 C 
ATOM     20  C19 UNL A   1      47.290  41.666 300.511  1.00  0.00    +0.000 C 
ATOM     21  C20 UNL A   1      48.068  41.734 302.040  1.00  0.00    +0.000 C 
ATOM     22  C21 UNL A   1      47.972  42.810 302.966  1.00  0.00    +0.000 C 
ATOM     24  C22 UNL A   1      48.275  42.690 304.422  1.00  0.00    +0.000 C 
ATOM     37  H10 UNL A   1      49.044  39.366 304.514  1.00  0.00    +0.000 H 
ATOM     44  H17 UNL A   1      46.651  39.958 301.563  1.00  0.00    +0.000 H 
ATOM     45  H18 UNL A   1      47.196  39.412 299.293  1.00  0.00    +0.000 H 
ATOM     46  H19 UNL A   1      45.452  40.258 299.908  1.00  0.00    +0.000 H 
ATOM     47  H20 UNL A   1      44.986  39.539 297.974  1.00  0.00    +0.000 H 
ATOM     48  H21 UNL A   1      46.510  38.725 297.778  1.00  0.00    +0.000 H 
ATOM     52  H25 UNL A   1      47.913  42.654 298.377  1.00  0.00    +0.000 H 
ATOM     53  H26 UNL A   1      46.336  42.179 300.702  1.00  0.00    +0.000 H 
ENDROOT
BRANCH    7    6
ATOM     35  H8  UNL A   1      49.591  42.136 306.836  1.00  0.00    +0.000 H 
ATOM     36  H9  UNL A   1      48.229  41.124 307.063  1.00  0.00    +0.000 H 
ATOM      6  C6  UNL A   1      49.125  41.224 306.435  1.00  0.00    +0.000 C 
BRANCH    6    5
ATOM     33  H6  UNL A   1      50.490  39.677 305.755  1.00  0.00    +0.000 H 
ATOM     34  H7  UNL A   1      50.960  40.368 307.287  1.00  0.00    +0.000 H 
ATOM      5  C5  UNL A   1      50.090  40.044 306.711  1.00  0.00    +0.000 C 
BRANCH    5    4
ATOM      4  C4  UNL A   1      49.436  38.881 307.457  1.00  0.00    +0.000 C 
ATOM     31  H4  UNL A   1      49.991  38.679 308.380  1.00  0.00    +0.000 H 
ATOM     32  H5  UNL A   1      48.415  39.160 307.747  1.00  0.00    +0.000 H 
BRANCH    4    3
ATOM      3  C3  UNL A   1      49.408  37.607 306.612  1.00  0.00    +0.000 C 
ATOM     29  H2  UNL A   1      48.498  37.034 306.818  1.00  0.00    +0.000 H 
ATOM     30  H3  UNL A   1      49.411  37.858 305.544  1.00  0.00    +0.000 H 
BRANCH    3    2
ATOM      2  C2  UNL A   1      50.614  36.729 306.907  1.00  0.00    +0.000 C 
BRANCH    2    1
ATOM      1  C1  UNL A   1      51.648  35.976 307.160  1.00  0.00    +0.000 C 
ATOM     28  H1  UNL A   1      52.493  35.360 307.360  1.00  0.00    +0.000 H 
ENDBRANCH    2    1
ENDBRANCH    3    2
ENDBRANCH    4    3
ENDBRANCH    5    4
ENDBRANCH    6    5
ENDBRANCH    7    6
BRANCH   11   12
ATOM     12  C11 UNL A   1      49.126  38.611 299.521  1.00  0.00    +0.000 C 
ATOM     38  H11 UNL A   1      50.159  38.306 299.345  1.00  0.00    +0.000 H 
ATOM     39  H12 UNL A   1      48.775  38.963 298.555  1.00  0.00    +0.000 H 
ATOM     40  H13 UNL A   1      48.670  37.624 299.739  1.00  0.00    +0.000 H 
ENDBRANCH   11   12
BRANCH   11   13
ATOM     41  H14 UNL A   1      50.759  40.556 300.117  1.00  0.00    +0.000 H 
ATOM     42  H15 UNL A   1      50.908  39.371 301.440  1.00  0.00    +0.000 H 
ATOM     43  H16 UNL A   1      50.164  40.983 301.611  1.00  0.00    +0.000 H 
ATOM     13  C12 UNL A   1      50.235  40.086 300.958  1.00  0.00    +0.000 C 
ENDBRANCH   11   13
BRANCH   17   18
ATOM     49  H22 UNL A   1      46.796  41.719 295.740  1.00  0.00    +0.000 H 
ATOM     18  C17 UNL A   1      46.610  40.734 296.248  1.00  0.00    +0.000 C 
ATOM     51  H24 UNL A   1      47.403  40.140 295.771  1.00  0.00    +0.000 H 
ATOM     50  H23 UNL A   1      45.613  40.511 295.867  1.00  0.00    +0.000 H 
ENDBRANCH   17   18
BRANCH   22   23
ATOM     54  H27 UNL A   1      48.199  44.701 302.741  1.00  0.00    +0.000 H 
ATOM     23  O2  UNL A   1      47.543  44.040 302.516  1.00  0.00    +0.000 O 
ENDBRANCH   22   23
BRANCH   24   25
ATOM     25  C23 UNL A   1      48.023  43.862 305.449  1.00  0.00    +0.000 C 
ATOM     26  O3  UNL A   1      49.029  44.613 305.682  1.00  0.00    +0.000 O 
ATOM     27  O4  UNL A   1      46.940  43.965 305.990  1.00  0.00    +0.000 O 
ENDBRANCH   24   25
TORSDOF 11
ENDMDL
MODEL 3
REMARK VINA RESULT:    -6.664     13.241     16.238
REMARK INTER + INTRA:         -10.622
REMARK INTER:                 -10.072
REMARK INTRA:                  -0.550
REMARK UNBOUND:                -0.647
ROOT
ATOM      7  C7  UNL A   1      48.376  40.136 301.516  1.00  0.00    +0.000 C 
ATOM      8  C8  UNL A   1      48.558  38.836 300.982  1.00  0.00    +0.000 C 
ATOM      9  C9  UNL A   1      48.745  38.672 299.605  1.00  0.00    +0.000 C 
ATOM     10  O1  UNL A   1      48.913  37.244 299.309  1.00  0.00    +0.000 O 
ATOM     11  C10 UNL A   1      49.632  37.278 298.074  1.00  0.00    +0.000 C 
ATOM     14  C13 UNL A   1      48.353  37.982 297.278  1.00  0.00    +0.000 C 
ATOM     15  C14 UNL A   1      47.664  37.168 296.196  1.00  0.00    +0.000 C 
ATOM     16  C15 UNL A   1      48.025  36.934 294.781  1.00  0.00    +0.000 C 
ATOM     17  C16 UNL A   1      49.056  38.017 294.391  1.00  0.00    +0.000 C 
ATOM     19  C18 UNL A   1      49.442  39.031 295.330  1.00  0.00    +0.000 C 
ATOM     20  C19 UNL A   1      48.688  39.370 296.894  1.00  0.00    +0.000 C 
ATOM     21  C20 UNL A   1      48.870  39.750 298.559  1.00  0.00    +0.000 C 
ATOM     22  C21 UNL A   1      48.617  41.022 299.145  1.00  0.00    +0.000 C 
ATOM     24  C22 UNL A   1      48.359  41.235 300.600  1.00  0.00    +0.000 C 
ATOM     37  H10 UNL A   1      48.519  37.986 301.632  1.00  0.00    +0.000 H 
ATOM     44  H17 UNL A   1      47.458  38.015 297.936  1.00  0.00    +0.000 H 
ATOM     45  H18 UNL A   1      48.685  36.901 296.203  1.00  0.00    +0.000 H 
ATOM     46  H19 UNL A   1      46.991  37.990 295.925  1.00  0.00    +0.000 H 
ATOM     47  H20 UNL A   1      47.139  36.860 294.142  1.00  0.00    +0.000 H 
ATOM     48  H21 UNL A   1      48.488  35.919 294.709  1.00  0.00    +0.000 H 
ATOM     52  H25 UNL A   1      50.175  39.769 295.011  1.00  0.00    +0.000 H 
ATOM     53  H26 UNL A   1      47.820  39.979 296.600  1.00  0.00    +0.000 H 
ENDROOT
BRANCH    7    6
ATOM     35  H8  UNL A   1      48.682  41.156 303.400  1.00  0.00    +0.000 H 
ATOM     36  H9  UNL A   1      47.140  40.425 303.271  1.00  0.00    +0.000 H 
ATOM      6  C6  UNL A   1      48.196  40.242 303.031  1.00  0.00    +0.000 C 
BRANCH    6    5
ATOM     33  H6  UNL A   1      47.881  38.581 304.396  1.00  0.00    +0.000 H 
ATOM     34  H7  UNL A   1      49.153  38.275 303.240  1.00  0.00    +0.000 H 
ATOM      5  C5  UNL A   1      48.725  39.055 303.875  1.00  0.00    +0.000 C 
BRANCH    5    4
ATOM      4  C4  UNL A   1      49.782  39.460 304.903  1.00  0.00    +0.000 C 
ATOM     31  H4  UNL A   1      50.765  39.506 304.422  1.00  0.00    +0.000 H 
ATOM     32  H5  UNL A   1      49.559  40.467 305.281  1.00  0.00    +0.000 H 
BRANCH    4    3
ATOM      3  C3  UNL A   1      49.850  38.472 306.068  1.00  0.00    +0.000 C 
ATOM     29  H2  UNL A   1      49.282  37.566 305.832  1.00  0.00    +0.000 H 
ATOM     30  H3  UNL A   1      50.890  38.175 306.255  1.00  0.00    +0.000 H 
BRANCH    3    2
ATOM      2  C2  UNL A   1      49.286  39.086 307.339  1.00  0.00    +0.000 C 
BRANCH    2    1
ATOM      1  C1  UNL A   1      48.802  39.612 308.430  1.00  0.00    +0.000 C 
ATOM     28  H1  UNL A   1      48.401  40.043 309.317  1.00  0.00    +0.000 H 
ENDBRANCH    2    1
ENDBRANCH    3    2
ENDBRANCH    4    3
ENDBRANCH    5    4
ENDBRANCH    6    5
ENDBRANCH    7    6
BRANCH   11   12
ATOM     12  C11 UNL A   1      50.258  36.047 297.306  1.00  0.00    +0.000 C 
ATOM     38  H11 UNL A   1      51.320  35.814 297.396  1.00  0.00    +0.000 H 
ATOM     39  H12 UNL A   1      50.065  36.038 296.236  1.00  0.00    +0.000 H 
ATOM     40  H13 UNL A   1      49.823  35.135 297.762  1.00  0.00    +0.000 H 
ENDBRANCH   11   12
BRANCH   11   13
ATOM     41  H14 UNL A   1      50.980  38.587 299.438  1.00  0.00    +0.000 H 
ATOM     42  H15 UNL A   1      51.819  37.885 298.031  1.00  0.00    +0.000 H 
ATOM     43  H16 UNL A   1      51.294  36.954 299.458  1.00  0.00    +0.000 H 
ATOM     13  C12 UNL A   1      50.995  37.743 298.736  1.00  0.00    +0.000 C 
ENDBRANCH   11   13
BRANCH   17   18
ATOM     49  H22 UNL A   1      50.541  37.613 292.806  1.00  0.00    +0.000 H 
ATOM     18  C17 UNL A   1      49.436  37.488 292.969  1.00  0.00    +0.000 C 
ATOM     51  H24 UNL A   1      49.365  36.397 292.853  1.00  0.00    +0.000 H 
ATOM     50  H23 UNL A   1      49.055  38.041 292.111  1.00  0.00    +0.000 H 
ENDBRANCH   17   18
BRANCH   22   23
ATOM     54  H27 UNL A   1      47.776  42.103 297.804  1.00  0.00    +0.000 H 
ATOM     23  O2  UNL A   1      48.573  42.134 298.333  1.00  0.00    +0.000 O 
ENDBRANCH   22   23
BRANCH   24   25
ATOM     25  C23 UNL A   1      47.942  42.634 301.200  1.00  0.00    +0.000 C 
ATOM     26  O3  UNL A   1      48.909  43.399 301.532  1.00  0.00    +0.000 O 
ATOM     27  O4  UNL A   1      46.766  42.894 301.359  1.00  0.00    +0.000 O 
ENDBRANCH   24   25
TORSDOF 11
ENDMDL
MODEL 4
REMARK VINA RESULT:    -6.536      9.286     12.535
REMARK INTER + INTRA:         -10.431
REMARK INTER:                  -9.075
REMARK INTRA:                  -1.356
REMARK UNBOUND:                -0.647
ROOT
ATOM      7  C7  UNL A   1      34.632  42.906 304.424  1.00  0.00    +0.000 C 
ATOM      8  C8  UNL A   1      33.283  43.305 304.247  1.00  0.00    +0.000 C 
ATOM      9  C9  UNL A   1      32.548  43.769 305.344  1.00  0.00    +0.000 C 
ATOM     10  O1  UNL A   1      31.193  44.118 304.902  1.00  0.00    +0.000 O 
ATOM     11  C10 UNL A   1      30.787  45.057 305.901  1.00  0.00    +0.000 C 
ATOM     14  C13 UNL A   1      30.825  43.898 307.093  1.00  0.00    +0.000 C 
ATOM     15  C14 UNL A   1      29.506  43.508 307.736  1.00  0.00    +0.000 C 
ATOM     16  C15 UNL A   1      28.722  44.156 308.811  1.00  0.00    +0.000 C 
ATOM     17  C16 UNL A   1      29.669  45.141 309.532  1.00  0.00    +0.000 C 
ATOM     19  C18 UNL A   1      31.048  45.245 309.146  1.00  0.00    +0.000 C 
ATOM     20  C19 UNL A   1      31.923  44.175 308.043  1.00  0.00    +0.000 C 
ATOM     21  C20 UNL A   1      33.040  43.996 306.751  1.00  0.00    +0.000 C 
ATOM     22  C21 UNL A   1      34.376  43.521 306.877  1.00  0.00    +0.000 C 
ATOM     24  C22 UNL A   1      35.176  42.968 305.745  1.00  0.00    +0.000 C 
ATOM     37  H10 UNL A   1      32.827  43.217 303.283  1.00  0.00    +0.000 H 
ATOM     44  H17 UNL A   1      30.999  42.894 306.651  1.00  0.00    +0.000 H 
ATOM     45  H18 UNL A   1      29.449  44.529 307.473  1.00  0.00    +0.000 H 
ATOM     46  H19 UNL A   1      29.988  42.829 308.450  1.00  0.00    +0.000 H 
ATOM     47  H20 UNL A   1      28.217  43.421 309.446  1.00  0.00    +0.000 H 
ATOM     48  H21 UNL A   1      27.880  44.714 308.332  1.00  0.00    +0.000 H 
ATOM     52  H25 UNL A   1      31.674  45.957 309.680  1.00  0.00    +0.000 H 
ATOM     53  H26 UNL A   1      32.176  43.329 308.700  1.00  0.00    +0.000 H 
ENDROOT
BRANCH    7    6
ATOM     35  H8  UNL A   1      36.336  41.972 303.471  1.00  0.00    +0.000 H 
ATOM     36  H9  UNL A   1      34.846  41.581 302.724  1.00  0.00    +0.000 H 
ATOM      6  C6  UNL A   1      35.379  42.427 303.178  1.00  0.00    +0.000 C 
BRANCH    6    5
ATOM     33  H6  UNL A   1      36.305  43.047 301.312  1.00  0.00    +0.000 H 
ATOM     34  H7  UNL A   1      34.765  43.820 301.593  1.00  0.00    +0.000 H 
ATOM      5  C5  UNL A   1      35.679  43.496 302.097  1.00  0.00    +0.000 C 
BRANCH    5    4
ATOM      4  C4  UNL A   1      36.382  44.738 302.644  1.00  0.00    +0.000 C 
ATOM     31  H4  UNL A   1      36.198  44.820 303.722  1.00  0.00    +0.000 H 
ATOM     32  H5  UNL A   1      37.466  44.636 302.508  1.00  0.00    +0.000 H 
BRANCH    4    3
ATOM      3  C3  UNL A   1      35.891  46.017 301.964  1.00  0.00    +0.000 C 
ATOM     29  H2  UNL A   1      36.261  46.898 302.498  1.00  0.00    +0.000 H 
ATOM     30  H3  UNL A   1      36.265  46.068 300.934  1.00  0.00    +0.000 H 
BRANCH    3    2
ATOM      2  C2  UNL A   1      34.371  46.068 301.931  1.00  0.00    +0.000 C 
BRANCH    2    1
ATOM      1  C1  UNL A   1      33.069  46.112 301.902  1.00  0.00    +0.000 C 
ATOM     28  H1  UNL A   1      32.005  46.153 301.881  1.00  0.00    +0.000 H 
ENDBRANCH    2    1
ENDBRANCH    3    2
ENDBRANCH    4    3
ENDBRANCH    5    4
ENDBRANCH    6    5
ENDBRANCH    7    6
BRANCH   11   12
ATOM     12  C11 UNL A   1      29.468  45.929 305.904  1.00  0.00    +0.000 C 
ATOM     38  H11 UNL A   1      29.183  46.506 306.785  1.00  0.00    +0.000 H 
ATOM     39  H12 UNL A   1      28.568  45.385 305.629  1.00  0.00    +0.000 H 
ATOM     40  H13 UNL A   1      29.632  46.752 305.180  1.00  0.00    +0.000 H 
ENDBRANCH   11   12
BRANCH   11   13
ATOM     41  H14 UNL A   1      31.579  46.591 304.348  1.00  0.00    +0.000 H 
ATOM     42  H15 UNL A   1      32.795  46.052 305.535  1.00  0.00    +0.000 H 
ATOM     43  H16 UNL A   1      31.437  47.146 305.909  1.00  0.00    +0.000 H 
ATOM     13  C12 UNL A   1      31.726  46.219 305.370  1.00  0.00    +0.000 C 
ENDBRANCH   11   13
BRANCH   17   18
ATOM     49  H22 UNL A   1      28.525  45.244 311.419  1.00  0.00    +0.000 H 
ATOM     18  C17 UNL A   1      28.629  45.836 310.469  1.00  0.00    +0.000 C 
ATOM     51  H24 UNL A   1      28.965  46.792 310.897  1.00  0.00    +0.000 H 
ATOM     50  H23 UNL A   1      27.590  45.850 310.141  1.00  0.00    +0.000 H 
ENDBRANCH   17   18
BRANCH   22   23
ATOM     54  H27 UNL A   1      34.532  42.904 308.686  1.00  0.00    +0.000 H 
ATOM     23  O2  UNL A   1      34.974  43.535 308.118  1.00  0.00    +0.000 O 
ENDBRANCH   22   23
BRANCH   24   25
ATOM     25  C23 UNL A   1      36.601  42.318 305.941  1.00  0.00    +0.000 C 
ATOM     26  O3  UNL A   1      36.602  41.103 306.332  1.00  0.00    +0.000 O 
ATOM     27  O4  UNL A   1      37.598  42.990 305.766  1.00  0.00    +0.000 O 
ENDBRANCH   24   25
TORSDOF 11
ENDMDL
MODEL 5
REMARK VINA RESULT:    -6.532     13.501     15.573
REMARK INTER + INTRA:         -10.425
REMARK INTER:                  -8.943
REMARK INTRA:                  -1.482
REMARK UNBOUND:                -0.647
ROOT
ATOM      7  C7  UNL A   1      47.902  38.365 298.806  1.00  0.00    +0.000 C 
ATOM      8  C8  UNL A   1      47.401  39.042 299.946  1.00  0.00    +0.000 C 
ATOM      9  C9  UNL A   1      48.255  39.320 301.018  1.00  0.00    +0.000 C 
ATOM     10  O1  UNL A   1      47.503  40.023 302.064  1.00  0.00    +0.000 O 
ATOM     11  C10 UNL A   1      48.541  40.715 302.764  1.00  0.00    +0.000 C 
ATOM     14  C13 UNL A   1      49.228  39.290 303.277  1.00  0.00    +0.000 C 
ATOM     15  C14 UNL A   1      49.204  38.993 304.766  1.00  0.00    +0.000 C 
ATOM     16  C15 UNL A   1      50.081  39.460 305.862  1.00  0.00    +0.000 C 
ATOM     17  C16 UNL A   1      51.365  40.017 305.208  1.00  0.00    +0.000 C 
ATOM     19  C18 UNL A   1      51.545  39.962 303.785  1.00  0.00    +0.000 C 
ATOM     20  C19 UNL A   1      50.539  39.087 302.623  1.00  0.00    +0.000 C 
ATOM     21  C20 UNL A   1      49.738  39.060 301.104  1.00  0.00    +0.000 C 
ATOM     22  C21 UNL A   1      50.166  38.328 299.961  1.00  0.00    +0.000 C 
ATOM     24  C22 UNL A   1      49.275  37.963 298.821  1.00  0.00    +0.000 C 
ATOM     37  H10 UNL A   1      46.364  39.306 299.992  1.00  0.00    +0.000 H 
ATOM     44  H17 UNL A   1      48.577  38.429 303.013  1.00  0.00    +0.000 H 
ATOM     45  H18 UNL A   1      49.281  40.039 304.644  1.00  0.00    +0.000 H 
ATOM     46  H19 UNL A   1      49.781  38.069 304.651  1.00  0.00    +0.000 H 
ATOM     47  H20 UNL A   1      50.225  38.689 306.625  1.00  0.00    +0.000 H 
ATOM     48  H21 UNL A   1      49.544  40.274 306.408  1.00  0.00    +0.000 H 
ATOM     52  H25 UNL A   1      52.464  40.372 303.371  1.00  0.00    +0.000 H 
ATOM     53  H26 UNL A   1      50.932  38.063 302.707  1.00  0.00    +0.000 H 
ENDROOT
BRANCH    7    6
ATOM     35  H8  UNL A   1      47.125  37.136 297.203  1.00  0.00    +0.000 H 
ATOM     36  H9  UNL A   1      45.904  37.967 298.068  1.00  0.00    +0.000 H 
ATOM      6  C6  UNL A   1      46.916  38.111 297.665  1.00  0.00    +0.000 C 
BRANCH    6    5
ATOM     33  H6  UNL A   1      47.880  39.615 296.427  1.00  0.00    +0.000 H 
ATOM     34  H7  UNL A   1      46.663  38.707 295.565  1.00  0.00    +0.000 H 
ATOM      5  C5  UNL A   1      46.881  39.168 296.532  1.00  0.00    +0.000 C 
BRANCH    5    4
ATOM      4  C4  UNL A   1      45.860  40.281 296.766  1.00  0.00    +0.000 C 
ATOM     31  H4  UNL A   1      45.031  40.174 296.057  1.00  0.00    +0.000 H 
ATOM     32  H5  UNL A   1      45.437  40.185 297.775  1.00  0.00    +0.000 H 
BRANCH    4    3
ATOM      3  C3  UNL A   1      46.479  41.668 296.592  1.00  0.00    +0.000 C 
ATOM     29  H2  UNL A   1      46.627  41.888 295.529  1.00  0.00    +0.000 H 
ATOM     30  H3  UNL A   1      45.813  42.437 297.002  1.00  0.00    +0.000 H 
BRANCH    3    2
ATOM      2  C2  UNL A   1      47.821  41.760 297.302  1.00  0.00    +0.000 C 
BRANCH    2    1
ATOM      1  C1  UNL A   1      48.970  41.839 297.911  1.00  0.00    +0.000 C 
ATOM     28  H1  UNL A   1      49.907  41.901 298.414  1.00  0.00    +0.000 H 
ENDBRANCH    2    1
ENDBRANCH    3    2
ENDBRANCH    4    3
ENDBRANCH    5    4
ENDBRANCH    6    5
ENDBRANCH    7    6
BRANCH   11   12
ATOM     12  C11 UNL A   1      48.361  41.783 303.915  1.00  0.00    +0.000 C 
ATOM     38  H11 UNL A   1      48.940  41.714 304.837  1.00  0.00    +0.000 H 
ATOM     39  H12 UNL A   1      47.334  41.921 304.245  1.00  0.00    +0.000 H 
ATOM     40  H13 UNL A   1      48.748  42.743 303.517  1.00  0.00    +0.000 H 
ENDBRANCH   11   12
BRANCH   11   13
ATOM     41  H14 UNL A   1      48.891  41.425 300.582  1.00  0.00    +0.000 H 
ATOM     42  H15 UNL A   1      49.567  42.509 301.824  1.00  0.00    +0.000 H 
ATOM     43  H16 UNL A   1      47.826  42.334 301.479  1.00  0.00    +0.000 H 
ATOM     13  C12 UNL A   1      48.779  41.780 301.614  1.00  0.00    +0.000 C 
ENDBRANCH   11   13
BRANCH   17   18
ATOM     49  H22 UNL A   1      52.361  39.778 307.166  1.00  0.00    +0.000 H 
ATOM     18  C17 UNL A   1      52.048  40.613 306.483  1.00  0.00    +0.000 C 
ATOM     51  H24 UNL A   1      53.032  41.069 306.303  1.00  0.00    +0.000 H 
ATOM     50  H23 UNL A   1      51.421  41.190 307.163  1.00  0.00    +0.000 H 
ENDBRANCH   17   18
BRANCH   22   23
ATOM     54  H27 UNL A   1      51.489  36.940 300.001  1.00  0.00    +0.000 H 
ATOM     23  O2  UNL A   1      51.472  37.892 299.898  1.00  0.00    +0.000 O 
ENDBRANCH   22   23
BRANCH   24   25
ATOM     25  C23 UNL A   1      49.739  37.029 297.636  1.00  0.00    +0.000 C 
ATOM     26  O3  UNL A   1      50.237  37.631 296.626  1.00  0.00    +0.000 O 
ATOM     27  O4  UNL A   1      49.564  35.829 297.711  1.00  0.00    +0.000 O 
ENDBRANCH   24   25
TORSDOF 11
ENDMDL
MODEL 6
REMARK VINA RESULT:    -6.530     26.074     29.516
REMARK INTER + INTRA:         -10.422
REMARK INTER:                  -9.458
REMARK INTRA:                  -0.965
REMARK UNBOUND:                -0.647
ROOT
ATOM      7  C7  UNL A   1      49.822  20.171 294.144  1.00  0.00    +0.000 C 
ATOM      8  C8  UNL A   1      50.022  20.583 295.485  1.00  0.00    +0.000 C 
ATOM      9  C9  UNL A   1      50.033  19.629 296.509  1.00  0.00    +0.000 C 
ATOM     10  O1  UNL A   1      50.259  20.303 297.792  1.00  0.00    +0.000 O 
ATOM     11  C10 UNL A   1      50.802  19.249 298.591  1.00  0.00    +0.000 C 
ATOM     14  C13 UNL A   1      49.382  18.387 298.528  1.00  0.00    +0.000 C 
ATOM     15  C14 UNL A   1      48.612  18.202 299.825  1.00  0.00    +0.000 C 
ATOM     16  C15 UNL A   1      48.796  17.238 300.932  1.00  0.00    +0.000 C 
ATOM     17  C16 UNL A   1      49.687  16.096 300.396  1.00  0.00    +0.000 C 
ATOM     19  C18 UNL A   1      50.124  16.089 299.028  1.00  0.00    +0.000 C 
ATOM     20  C19 UNL A   1      49.564  17.154 297.732  1.00  0.00    +0.000 C 
ATOM     21  C20 UNL A   1      49.941  18.131 296.370  1.00  0.00    +0.000 C 
ATOM     22  C21 UNL A   1      49.681  17.787 295.014  1.00  0.00    +0.000 C 
ATOM     24  C22 UNL A   1      49.606  18.778 293.900  1.00  0.00    +0.000 C 
ATOM     37  H10 UNL A   1      50.129  21.624 295.709  1.00  0.00    +0.000 H 
ATOM     44  H17 UNL A   1      48.583  18.991 298.046  1.00  0.00    +0.000 H 
ATOM     45  H18 UNL A   1      49.642  18.229 300.058  1.00  0.00    +0.000 H 
ATOM     46  H19 UNL A   1      47.853  17.567 299.352  1.00  0.00    +0.000 H 
ATOM     47  H20 UNL A   1      47.841  16.938 301.372  1.00  0.00    +0.000 H 
ATOM     48  H21 UNL A   1      49.315  17.771 301.767  1.00  0.00    +0.000 H 
ATOM     52  H25 UNL A   1      50.755  15.266 298.699  1.00  0.00    +0.000 H 
ATOM     53  H26 UNL A   1      48.625  16.668 297.429  1.00  0.00    +0.000 H 
ENDROOT
BRANCH    7    6
ATOM     35  H8  UNL A   1      50.827  21.299 292.593  1.00  0.00    +0.000 H 
ATOM     36  H9  UNL A   1      49.181  20.987 292.242  1.00  0.00    +0.000 H 
ATOM      6  C6  UNL A   1      49.840  21.266 293.075  1.00  0.00    +0.000 C 
BRANCH    6    5
ATOM     33  H6  UNL A   1      48.583  23.038 293.048  1.00  0.00    +0.000 H 
ATOM     34  H7  UNL A   1      49.276  22.724 294.619  1.00  0.00    +0.000 H 
ATOM      5  C5  UNL A   1      49.502  22.701 293.550  1.00  0.00    +0.000 C 
BRANCH    5    4
ATOM      4  C4  UNL A   1      50.616  23.712 293.281  1.00  0.00    +0.000 C 
ATOM     31  H4  UNL A   1      51.096  23.484 292.322  1.00  0.00    +0.000 H 
ATOM     32  H5  UNL A   1      50.185  24.719 293.196  1.00  0.00    +0.000 H 
BRANCH    4    3
ATOM      3  C3  UNL A   1      51.680  23.694 294.380  1.00  0.00    +0.000 C 
ATOM     29  H2  UNL A   1      52.257  22.764 294.334  1.00  0.00    +0.000 H 
ATOM     30  H3  UNL A   1      52.379  24.528 294.246  1.00  0.00    +0.000 H 
BRANCH    3    2
ATOM      2  C2  UNL A   1      51.045  23.807 295.756  1.00  0.00    +0.000 C 
BRANCH    2    1
ATOM      1  C1  UNL A   1      50.501  23.905 296.937  1.00  0.00    +0.000 C 
ATOM     28  H1  UNL A   1      50.060  23.980 297.904  1.00  0.00    +0.000 H 
ENDBRANCH    2    1
ENDBRANCH    3    2
ENDBRANCH    4    3
ENDBRANCH    5    4
ENDBRANCH    6    5
ENDBRANCH    7    6
BRANCH   11   12
ATOM     12  C11 UNL A   1      51.404  19.375 300.048  1.00  0.00    +0.000 C 
ATOM     38  H11 UNL A   1      51.014  20.113 300.751  1.00  0.00    +0.000 H 
ATOM     39  H12 UNL A   1      52.482  19.509 300.079  1.00  0.00    +0.000 H 
ATOM     40  H13 UNL A   1      51.136  18.441 300.582  1.00  0.00    +0.000 H 
ENDBRANCH   11   12
BRANCH   11   13
ATOM     41  H14 UNL A   1      53.047  19.775 298.319  1.00  0.00    +0.000 H 
ATOM     42  H15 UNL A   1      52.165  19.508 296.794  1.00  0.00    +0.000 H 
ATOM     43  H16 UNL A   1      52.615  18.215 297.936  1.00  0.00    +0.000 H 
ATOM     13  C12 UNL A   1      52.206  19.245 297.854  1.00  0.00    +0.000 C 
ENDBRANCH   11   13
BRANCH   17   18
ATOM     49  H22 UNL A   1      48.964  15.331 302.338  1.00  0.00    +0.000 H 
ATOM     18  C17 UNL A   1      49.910  15.315 301.732  1.00  0.00    +0.000 C 
ATOM     51  H24 UNL A   1      50.021  14.227 301.612  1.00  0.00    +0.000 H 
ATOM     50  H23 UNL A   1      50.605  15.744 302.454  1.00  0.00    +0.000 H 
ENDBRANCH   17   18
BRANCH   22   23
ATOM     54  H27 UNL A   1      49.786  15.911 295.397  1.00  0.00    +0.000 H 
ATOM     23  O2  UNL A   1      49.451  16.467 294.692  1.00  0.00    +0.000 O 
ENDBRANCH   22   23
BRANCH   24   25
ATOM     25  C23 UNL A   1      49.176  18.387 292.433  1.00  0.00    +0.000 C 
ATOM     26  O3  UNL A   1      47.923  18.220 292.254  1.00  0.00    +0.000 O 
ATOM     27  O4  UNL A   1      50.027  18.220 291.581  1.00  0.00    +0.000 O 
ENDBRANCH   24   25
TORSDOF 11
ENDMDL
MODEL 7
REMARK VINA RESULT:    -6.522     12.800     14.772
REMARK INTER + INTRA:         -10.409
REMARK INTER:                  -8.827
REMARK INTRA:                  -1.582
REMARK UNBOUND:                -0.647
ROOT
ATOM      7  C7  UNL A   1      48.159  41.166 297.554  1.00  0.00    +0.000 C 
ATOM      8  C8  UNL A   1      48.845  41.943 298.521  1.00  0.00    +0.000 C 
ATOM      9  C9  UNL A   1      48.944  41.481 299.838  1.00  0.00    +0.000 C 
ATOM     10  O1  UNL A   1      49.697  42.455 300.635  1.00  0.00    +0.000 O 
ATOM     11  C10 UNL A   1      50.196  41.646 301.703  1.00  0.00    +0.000 C 
ATOM     14  C13 UNL A   1      48.663  41.353 302.277  1.00  0.00    +0.000 C 
ATOM     15  C14 UNL A   1      48.301  41.922 303.638  1.00  0.00    +0.000 C 
ATOM     16  C15 UNL A   1      48.581  41.423 305.003  1.00  0.00    +0.000 C 
ATOM     17  C16 UNL A   1      48.977  39.936 304.870  1.00  0.00    +0.000 C 
ATOM     19  C18 UNL A   1      48.966  39.287 303.590  1.00  0.00    +0.000 C 
ATOM     20  C19 UNL A   1      48.304  39.931 302.081  1.00  0.00    +0.000 C 
ATOM     21  C20 UNL A   1      48.467  40.160 300.387  1.00  0.00    +0.000 C 
ATOM     22  C21 UNL A   1      47.737  39.458 299.388  1.00  0.00    +0.000 C 
ATOM     24  C22 UNL A   1      47.561  39.941 297.987  1.00  0.00    +0.000 C 
ATOM     37  H10 UNL A   1      49.255  42.892 298.244  1.00  0.00    +0.000 H 
ATOM     44  H17 UNL A   1      47.919  41.972 301.731  1.00  0.00    +0.000 H 
ATOM     45  H18 UNL A   1      49.329  41.682 303.649  1.00  0.00    +0.000 H 
ATOM     46  H19 UNL A   1      47.309  41.455 303.635  1.00  0.00    +0.000 H 
ATOM     47  H20 UNL A   1      47.761  41.644 305.693  1.00  0.00    +0.000 H 
ATOM     48  H21 UNL A   1      49.437  42.014 305.414  1.00  0.00    +0.000 H 
ATOM     52  H25 UNL A   1      49.257  38.240 303.546  1.00  0.00    +0.000 H 
ATOM     53  H26 UNL A   1      47.231  39.717 302.194  1.00  0.00    +0.000 H 
ENDROOT
BRANCH    7    6
ATOM     35  H8  UNL A   1      47.302  41.232 295.567  1.00  0.00    +0.000 H 
ATOM     36  H9  UNL A   1      47.774  42.771 296.150  1.00  0.00    +0.000 H 
ATOM      6  C6  UNL A   1      48.107  41.724 296.131  1.00  0.00    +0.000 C 
BRANCH    6    5
ATOM     33  H6  UNL A   1      49.235  42.051 294.302  1.00  0.00    +0.000 H 
ATOM     34  H7  UNL A   1      50.220  42.182 295.737  1.00  0.00    +0.000 H 
ATOM      5  C5  UNL A   1      49.405  41.605 295.292  1.00  0.00    +0.000 C 
BRANCH    5    4
ATOM      4  C4  UNL A   1      49.888  40.166 295.115  1.00  0.00    +0.000 C 
ATOM     31  H4  UNL A   1      49.104  39.472 295.439  1.00  0.00    +0.000 H 
ATOM     32  H5  UNL A   1      50.073  39.970 294.050  1.00  0.00    +0.000 H 
BRANCH    4    3
ATOM      3  C3  UNL A   1      51.156  39.886 295.923  1.00  0.00    +0.000 C 
ATOM     29  H2  UNL A   1      51.967  39.569 295.260  1.00  0.00    +0.000 H 
ATOM     30  H3  UNL A   1      51.484  40.796 296.442  1.00  0.00    +0.000 H 
BRANCH    3    2
ATOM      2  C2  UNL A   1      50.916  38.798 296.957  1.00  0.00    +0.000 C 
BRANCH    2    1
ATOM      1  C1  UNL A   1      50.709  37.864 297.843  1.00  0.00    +0.000 C 
ATOM     28  H1  UNL A   1      50.541  37.106 298.572  1.00  0.00    +0.000 H 
ENDBRANCH    2    1
ENDBRANCH    3    2
ENDBRANCH    4    3
ENDBRANCH    5    4
ENDBRANCH    6    5
ENDBRANCH    7    6
BRANCH   11   12
ATOM     12  C11 UNL A   1      51.222  42.080 302.824  1.00  0.00    +0.000 C 
ATOM     38  H11 UNL A   1      50.947  42.038 303.879  1.00  0.00    +0.000 H 
ATOM     39  H12 UNL A   1      51.643  43.073 302.690  1.00  0.00    +0.000 H 
ATOM     40  H13 UNL A   1      52.040  41.332 302.810  1.00  0.00    +0.000 H 
ENDBRANCH   11   12
BRANCH   11   13
ATOM     41  H14 UNL A   1      50.925  40.142 300.091  1.00  0.00    +0.000 H 
ATOM     42  H15 UNL A   1      52.128  40.506 301.355  1.00  0.00    +0.000 H 
ATOM     43  H16 UNL A   1      51.647  41.641 300.066  1.00  0.00    +0.000 H 
ATOM     13  C12 UNL A   1      51.270  40.901 300.805  1.00  0.00    +0.000 C 
ENDBRANCH   11   13
BRANCH   17   18
ATOM     49  H22 UNL A   1      48.489  39.552 306.991  1.00  0.00    +0.000 H 
ATOM     18  C17 UNL A   1      49.405  39.666 306.350  1.00  0.00    +0.000 C 
ATOM     51  H24 UNL A   1      49.861  38.680 306.521  1.00  0.00    +0.000 H 
ATOM     50  H23 UNL A   1      49.908  40.474 306.881  1.00  0.00    +0.000 H 
ENDBRANCH   17   18
BRANCH   22   23
ATOM     54  H27 UNL A   1      46.188  38.334 299.511  1.00  0.00    +0.000 H 
ATOM     23  O2  UNL A   1      47.120  38.272 299.722  1.00  0.00    +0.000 O 
ENDBRANCH   22   23
BRANCH   24   25
ATOM     25  C23 UNL A   1      46.630  39.214 296.940  1.00  0.00    +0.000 C 
ATOM     26  O3  UNL A   1      47.146  38.204 296.354  1.00  0.00    +0.000 O 
ATOM     27  O4  UNL A   1      45.522  39.658 296.710  1.00  0.00    +0.000 O 
ENDBRANCH   24   25
TORSDOF 11
ENDMDL
MODEL 8
REMARK VINA RESULT:    -6.402     10.156     13.113
REMARK INTER + INTRA:         -10.230
REMARK INTER:                  -9.070
REMARK INTRA:                  -1.160
REMARK UNBOUND:                -0.647
ROOT
ATOM      7  C7  UNL A   1      34.605  42.683 305.477  1.00  0.00    +0.000 C 
ATOM      8  C8  UNL A   1      33.566  43.648 305.494  1.00  0.00    +0.000 C 
ATOM      9  C9  UNL A   1      33.355  44.419 306.641  1.00  0.00    +0.000 C 
ATOM     10  O1  UNL A   1      32.234  45.337 306.404  1.00  0.00    +0.000 O 
ATOM     11  C10 UNL A   1      32.499  46.380 307.346  1.00  0.00    +0.000 C 
ATOM     14  C13 UNL A   1      32.267  45.358 308.637  1.00  0.00    +0.000 C 
ATOM     15  C14 UNL A   1      31.075  45.624 309.540  1.00  0.00    +0.000 C 
ATOM     16  C15 UNL A   1      30.898  46.581 310.653  1.00  0.00    +0.000 C 
ATOM     17  C16 UNL A   1      32.308  47.044 311.083  1.00  0.00    +0.000 C 
ATOM     19  C18 UNL A   1      33.479  46.502 310.454  1.00  0.00    +0.000 C 
ATOM     20  C19 UNL A   1      33.544  45.126 309.345  1.00  0.00    +0.000 C 
ATOM     21  C20 UNL A   1      34.175  44.429 307.907  1.00  0.00    +0.000 C 
ATOM     22  C21 UNL A   1      35.158  43.402 307.852  1.00  0.00    +0.000 C 
ATOM     24  C22 UNL A   1      35.380  42.520 306.669  1.00  0.00    +0.000 C 
ATOM     37  H10 UNL A   1      32.930  43.755 304.639  1.00  0.00    +0.000 H 
ATOM     44  H17 UNL A   1      31.885  44.374 308.288  1.00  0.00    +0.000 H 
ATOM     45  H18 UNL A   1      31.421  46.553 309.176  1.00  0.00    +0.000 H 
ATOM     46  H19 UNL A   1      31.344  44.817 310.231  1.00  0.00    +0.000 H 
ATOM     47  H20 UNL A   1      30.264  46.171 311.446  1.00  0.00    +0.000 H 
ATOM     48  H21 UNL A   1      30.309  47.450 310.268  1.00  0.00    +0.000 H 
ATOM     52  H25 UNL A   1      34.449  46.862 310.787  1.00  0.00    +0.000 H 
ATOM     53  H26 UNL A   1      33.528  44.273 310.039  1.00  0.00    +0.000 H 
ENDROOT
BRANCH    7    6
ATOM     35  H8  UNL A   1      35.361  40.972 304.388  1.00  0.00    +0.000 H 
ATOM     36  H9  UNL A   1      33.823  41.493 303.845  1.00  0.00    +0.000 H 
ATOM      6  C6  UNL A   1      34.790  41.889 304.183  1.00  0.00    +0.000 C 
BRANCH    6    5
ATOM     33  H6  UNL A   1      36.208  41.942 302.538  1.00  0.00    +0.000 H 
ATOM     34  H7  UNL A   1      34.778  42.894 302.229  1.00  0.00    +0.000 H 
ATOM      5  C5  UNL A   1      35.490  42.626 303.013  1.00  0.00    +0.000 C 
BRANCH    5    4
ATOM      4  C4  UNL A   1      36.222  43.897 303.442  1.00  0.00    +0.000 C 
ATOM     31  H4  UNL A   1      35.891  44.191 304.444  1.00  0.00    +0.000 H 
ATOM     32  H5  UNL A   1      37.300  43.697 303.503  1.00  0.00    +0.000 H 
BRANCH    4    3
ATOM      3  C3  UNL A   1      35.962  45.056 302.479  1.00  0.00    +0.000 C 
ATOM     29  H2  UNL A   1      36.559  45.929 302.764  1.00  0.00    +0.000 H 
ATOM     30  H3  UNL A   1      36.249  44.774 301.458  1.00  0.00    +0.000 H 
BRANCH    3    2
ATOM      2  C2  UNL A   1      34.493  45.447 302.479  1.00  0.00    +0.000 C 
BRANCH    2    1
ATOM      1  C1  UNL A   1      33.233  45.782 302.479  1.00  0.00    +0.000 C 
ATOM     28  H1  UNL A   1      32.202  46.049 302.481  1.00  0.00    +0.000 H 
ENDBRANCH    2    1
ENDBRANCH    3    2
ENDBRANCH    4    3
ENDBRANCH    5    4
ENDBRANCH    6    5
ENDBRANCH    7    6
BRANCH   11   12
ATOM     12  C11 UNL A   1      31.732  47.756 307.479  1.00  0.00    +0.000 C 
ATOM     38  H11 UNL A   1      32.279  48.699 307.520  1.00  0.00    +0.000 H 
ATOM     39  H12 UNL A   1      31.038  47.805 308.314  1.00  0.00    +0.000 H 
ATOM     40  H13 UNL A   1      31.173  47.899 306.532  1.00  0.00    +0.000 H 
ENDBRANCH   11   12
BRANCH   11   13
ATOM     41  H14 UNL A   1      33.635  47.985 306.112  1.00  0.00    +0.000 H 
ATOM     42  H15 UNL A   1      34.128  46.308 305.766  1.00  0.00    +0.000 H 
ATOM     43  H16 UNL A   1      34.530  47.187 307.264  1.00  0.00    +0.000 H 
ATOM     13  C12 UNL A   1      33.722  46.975 306.532  1.00  0.00    +0.000 C 
ENDBRANCH   11   13
BRANCH   17   18
ATOM     49  H22 UNL A   1      31.576  49.078 311.544  1.00  0.00    +0.000 H 
ATOM     18  C17 UNL A   1      31.898  48.157 312.102  1.00  0.00    +0.000 C 
ATOM     51  H24 UNL A   1      30.967  47.953 312.651  1.00  0.00    +0.000 H 
ATOM     50  H23 UNL A   1      32.686  48.580 312.725  1.00  0.00    +0.000 H 
ENDBRANCH   17   18
BRANCH   22   23
ATOM     54  H27 UNL A   1      36.587  42.493 308.751  1.00  0.00    +0.000 H 
ATOM     23  O2  UNL A   1      35.943  43.171 308.960  1.00  0.00    +0.000 O 
ENDBRANCH   22   23
BRANCH   24   25
ATOM     25  C23 UNL A   1      36.379  41.299 306.687  1.00  0.00    +0.000 C 
ATOM     26  O3  UNL A   1      35.902  40.206 307.142  1.00  0.00    +0.000 O 
ATOM     27  O4  UNL A   1      37.529  41.456 306.326  1.00  0.00    +0.000 O 
ENDBRANCH   24   25
TORSDOF 11
ENDMDL
MODEL 9
REMARK VINA RESULT:    -6.314      1.813      2.877
REMARK INTER + INTRA:         -10.098
REMARK INTER:                  -9.042
REMARK INTRA:                  -1.057
REMARK UNBOUND:                -0.647
ROOT
ATOM      7  C7  UNL A   1      35.496  45.437 293.704  1.00  0.00    +0.000 C 
ATOM      8  C8  UNL A   1      35.122  44.904 294.964  1.00  0.00    +0.000 C 
ATOM      9  C9  UNL A   1      35.354  45.647 296.126  1.00  0.00    +0.000 C 
ATOM     10  O1  UNL A   1      34.879  44.884 297.287  1.00  0.00    +0.000 O 
ATOM     11  C10 UNL A   1      34.644  45.918 298.247  1.00  0.00    +0.000 C 
ATOM     14  C13 UNL A   1      36.260  46.305 298.315  1.00  0.00    +0.000 C 
ATOM     15  C14 UNL A   1      36.991  46.045 299.621  1.00  0.00    +0.000 C 
ATOM     16  C15 UNL A   1      37.057  46.836 300.869  1.00  0.00    +0.000 C 
ATOM     17  C16 UNL A   1      36.577  48.264 300.527  1.00  0.00    +0.000 C 
ATOM     19  C18 UNL A   1      36.223  48.614 299.181  1.00  0.00    +0.000 C 
ATOM     20  C19 UNL A   1      36.493  47.642 297.728  1.00  0.00    +0.000 C 
ATOM     21  C20 UNL A   1      35.900  47.048 296.229  1.00  0.00    +0.000 C 
ATOM     22  C21 UNL A   1      36.311  47.500 294.944  1.00  0.00    +0.000 C 
ATOM     24  C22 UNL A   1      36.133  46.717 293.686  1.00  0.00    +0.000 C 
ATOM     37  H10 UNL A   1      34.696  43.924 295.019  1.00  0.00    +0.000 H 
ATOM     44  H17 UNL A   1      36.860  45.568 297.739  1.00  0.00    +0.000 H 
ATOM     45  H18 UNL A   1      35.992  46.298 299.852  1.00  0.00    +0.000 H 
ATOM     46  H19 UNL A   1      37.926  46.483 299.253  1.00  0.00    +0.000 H 
ATOM     47  H20 UNL A   1      38.039  46.760 301.347  1.00  0.00    +0.000 H 
ATOM     48  H21 UNL A   1      36.366  46.366 301.611  1.00  0.00    +0.000 H 
ATOM     52  H25 UNL A   1      35.886  49.630 298.990  1.00  0.00    +0.000 H 
ATOM     53  H26 UNL A   1      37.547  47.859 297.502  1.00  0.00    +0.000 H 
ENDROOT
BRANCH    7    6
ATOM     35  H8  UNL A   1      34.241  44.051 292.613  1.00  0.00    +0.000 H 
ATOM     36  H9  UNL A   1      34.986  45.221 291.610  1.00  0.00    +0.000 H 
ATOM      6  C6  UNL A   1      35.196  44.578 292.475  1.00  0.00    +0.000 C 
BRANCH    6    5
ATOM     33  H6  UNL A   1      36.631  43.733 291.078  1.00  0.00    +0.000 H 
ATOM     34  H7  UNL A   1      37.139  43.587 292.742  1.00  0.00    +0.000 H 
ATOM      5  C5  UNL A   1      36.263  43.520 292.093  1.00  0.00    +0.000 C 
BRANCH    5    4
ATOM      4  C4  UNL A   1      35.745  42.083 292.144  1.00  0.00    +0.000 C 
ATOM     31  H4  UNL A   1      34.709  42.053 291.786  1.00  0.00    +0.000 H 
ATOM     32  H5  UNL A   1      36.339  41.455 291.468  1.00  0.00    +0.000 H 
BRANCH    4    3
ATOM      3  C3  UNL A   1      35.792  41.511 293.561  1.00  0.00    +0.000 C 
ATOM     29  H2  UNL A   1      35.204  42.135 294.243  1.00  0.00    +0.000 H 
ATOM     30  H3  UNL A   1      35.364  40.501 293.579  1.00  0.00    +0.000 H 
BRANCH    3    2
ATOM      2  C2  UNL A   1      37.222  41.440 294.074  1.00  0.00    +0.000 C 
BRANCH    2    1
ATOM      1  C1  UNL A   1      38.448  41.379 294.513  1.00  0.00    +0.000 C 
ATOM     28  H1  UNL A   1      39.447  41.328 294.878  1.00  0.00    +0.000 H 
ENDBRANCH    2    1
ENDBRANCH    3    2
ENDBRANCH    4    3
ENDBRANCH    5    4
ENDBRANCH    6    5
ENDBRANCH    7    6
BRANCH   11   12
ATOM     12  C11 UNL A   1      33.968  45.759 299.667  1.00  0.00    +0.000 C 
ATOM     38  H11 UNL A   1      33.693  44.774 300.047  1.00  0.00    +0.000 H 
ATOM     39  H12 UNL A   1      33.080  46.368 299.814  1.00  0.00    +0.000 H 
ATOM     40  H13 UNL A   1      34.735  46.045 300.415  1.00  0.00    +0.000 H 
ENDBRANCH   11   12
BRANCH   11   13
ATOM     41  H14 UNL A   1      33.187  47.548 297.466  1.00  0.00    +0.000 H 
ATOM     42  H15 UNL A   1      32.409  45.991 297.852  1.00  0.00    +0.000 H 
ATOM     43  H16 UNL A   1      33.462  46.268 296.440  1.00  0.00    +0.000 H 
ATOM     13  C12 UNL A   1      33.341  46.463 297.527  1.00  0.00    +0.000 C 
ENDBRANCH   11   13
BRANCH   17   18
ATOM     49  H22 UNL A   1      37.587  49.105 302.303  1.00  0.00    +0.000 H 
ATOM     18  C17 UNL A   1      36.541  48.861 301.972  1.00  0.00    +0.000 C 
ATOM     51  H24 UNL A   1      36.099  49.866 302.041  1.00  0.00    +0.000 H 
ATOM     50  H23 UNL A   1      36.237  48.197 302.781  1.00  0.00    +0.000 H 
ENDBRANCH   17   18
BRANCH   22   23
ATOM     54  H27 UNL A   1      37.428  48.893 295.644  1.00  0.00    +0.000 H 
ATOM     23  O2  UNL A   1      36.943  48.721 294.837  1.00  0.00    +0.000 O 
ENDBRANCH   22   23
BRANCH   24   25
ATOM     25  C23 UNL A   1      36.725  47.180 292.298  1.00  0.00    +0.000 C 
ATOM     26  O3  UNL A   1      37.914  46.786 292.049  1.00  0.00    +0.000 O 
ATOM     27  O4  UNL A   1      36.069  47.903 291.575  1.00  0.00    +0.000 O 
ENDBRANCH   24   25
TORSDOF 11
ENDMDL
MODEL 10
REMARK VINA RESULT:    -6.314     12.687     16.097
REMARK INTER + INTRA:         -10.098
REMARK INTER:                  -9.172
REMARK INTRA:                  -0.926
REMARK UNBOUND:                -0.647
ROOT
ATOM      7  C7  UNL A   1      47.719  42.426 301.739  1.00  0.00    +0.000 C 
ATOM      8  C8  UNL A   1      47.445  42.163 300.373  1.00  0.00    +0.000 C 
ATOM      9  C9  UNL A   1      47.846  40.948 299.807  1.00  0.00    +0.000 C 
ATOM     10  O1  UNL A   1      47.445  40.919 298.396  1.00  0.00    +0.000 O 
ATOM     11  C10 UNL A   1      47.382  39.515 298.132  1.00  0.00    +0.000 C 
ATOM     14  C13 UNL A   1      49.019  39.336 298.368  1.00  0.00    +0.000 C 
ATOM     15  C14 UNL A   1      49.863  38.944 297.168  1.00  0.00    +0.000 C 
ATOM     16  C15 UNL A   1      50.113  37.625 296.548  1.00  0.00    +0.000 C 
ATOM     17  C16 UNL A   1      49.697  36.553 297.579  1.00  0.00    +0.000 C 
ATOM     19  C18 UNL A   1      49.228  36.933 298.881  1.00  0.00    +0.000 C 
ATOM     20  C19 UNL A   1      49.278  38.551 299.594  1.00  0.00    +0.000 C 
ATOM     21  C20 UNL A   1      48.493  39.778 300.504  1.00  0.00    +0.000 C 
ATOM     22  C21 UNL A   1      48.797  40.127 301.850  1.00  0.00    +0.000 C 
ATOM     24  C22 UNL A   1      48.436  41.432 302.477  1.00  0.00    +0.000 C 
ATOM     37  H10 UNL A   1      46.961  42.909 299.777  1.00  0.00    +0.000 H 
ATOM     44  H17 UNL A   1      49.504  40.329 298.487  1.00  0.00    +0.000 H 
ATOM     45  H18 UNL A   1      48.914  38.496 297.057  1.00  0.00    +0.000 H 
ATOM     46  H19 UNL A   1      50.782  38.877 297.762  1.00  0.00    +0.000 H 
ATOM     47  H20 UNL A   1      51.132  37.546 296.156  1.00  0.00    +0.000 H 
ATOM     48  H21 UNL A   1      49.473  37.549 295.634  1.00  0.00    +0.000 H 
ATOM     52  H25 UNL A   1      48.942  36.142 299.571  1.00  0.00    +0.000 H 
ATOM     53  H26 UNL A   1      50.316  38.608 299.956  1.00  0.00    +0.000 H 
ENDROOT
BRANCH    7    6
ATOM     35  H8  UNL A   1      46.235  43.993 301.900  1.00  0.00    +0.000 H 
ATOM     36  H9  UNL A   1      47.047  43.679 303.374  1.00  0.00    +0.000 H 
ATOM      6  C6  UNL A   1      47.236  43.766 302.295  1.00  0.00    +0.000 C 
BRANCH    6    5
ATOM     33  H6  UNL A   1      49.188  44.670 301.987  1.00  0.00    +0.000 H 
ATOM     34  H7  UNL A   1      47.934  45.427 301.038  1.00  0.00    +0.000 H 
ATOM      5  C5  UNL A   1      48.138  44.996 302.021  1.00  0.00    +0.000 C 
BRANCH    5    4
ATOM      4  C4  UNL A   1      47.994  46.104 303.063  1.00  0.00    +0.000 C 
ATOM     31  H4  UNL A   1      48.356  47.051 302.645  1.00  0.00    +0.000 H 
ATOM     32  H5  UNL A   1      46.933  46.242 303.307  1.00  0.00    +0.000 H 
BRANCH    4    3
ATOM      3  C3  UNL A   1      48.784  45.795 304.336  1.00  0.00    +0.000 C 
ATOM     29  H2  UNL A   1      49.614  45.117 304.112  1.00  0.00    +0.000 H 
ATOM     30  H3  UNL A   1      49.209  46.717 304.753  1.00  0.00    +0.000 H 
BRANCH    3    2
ATOM      2  C2  UNL A   1      47.895  45.151 305.387  1.00  0.00    +0.000 C 
BRANCH    2    1
ATOM      1  C1  UNL A   1      47.134  44.599 306.290  1.00  0.00    +0.000 C 
ATOM     28  H1  UNL A   1      46.513  44.152 307.031  1.00  0.00    +0.000 H 
ENDBRANCH    2    1
ENDBRANCH    3    2
ENDBRANCH    4    3
ENDBRANCH    5    4
ENDBRANCH    6    5
ENDBRANCH    7    6
BRANCH   11   12
ATOM     12  C11 UNL A   1      46.850  38.819 296.817  1.00  0.00    +0.000 C 
ATOM     38  H11 UNL A   1      47.132  37.793 296.575  1.00  0.00    +0.000 H 
ATOM     39  H12 UNL A   1      47.037  39.378 295.904  1.00  0.00    +0.000 H 
ATOM     40  H13 UNL A   1      45.756  38.691 296.948  1.00  0.00    +0.000 H 
ENDBRANCH   11   12
BRANCH   11   13
ATOM     41  H14 UNL A   1      45.940  39.800 299.929  1.00  0.00    +0.000 H 
ATOM     42  H15 UNL A   1      45.756  38.245 299.079  1.00  0.00    +0.000 H 
ATOM     43  H16 UNL A   1      45.236  39.819 298.423  1.00  0.00    +0.000 H 
ATOM     13  C12 UNL A   1      46.051  39.292 298.964  1.00  0.00    +0.000 C 
ENDBRANCH   11   13
BRANCH   17   18
ATOM     49  H22 UNL A   1      49.280  35.422 295.727  1.00  0.00    +0.000 H 
ATOM     18  C17 UNL A   1      49.853  35.281 296.683  1.00  0.00    +0.000 C 
ATOM     51  H24 UNL A   1      50.860  35.138 296.263  1.00  0.00    +0.000 H 
ATOM     50  H23 UNL A   1      49.398  34.357 297.041  1.00  0.00    +0.000 H 
ENDBRANCH   17   18
BRANCH   22   23
ATOM     54  H27 UNL A   1      50.430  39.315 302.444  1.00  0.00    +0.000 H 
ATOM     23  O2  UNL A   1      49.494  39.230 302.630  1.00  0.00    +0.000 O 
ENDBRANCH   22   23
BRANCH   24   25
ATOM     25  C23 UNL A   1      48.909  41.846 303.925  1.00  0.00    +0.000 C 
ATOM     26  O3  UNL A   1      50.033  42.450 303.983  1.00  0.00    +0.000 O 
ATOM     27  O4  UNL A   1      48.234  41.543 304.888  1.00  0.00    +0.000 O 
ENDBRANCH   24   25
TORSDOF 11
ENDMDL
MODEL 11
REMARK VINA RESULT:    -6.237     25.580     30.188
REMARK INTER + INTRA:          -9.983
REMARK INTER:                  -9.023
REMARK INTRA:                  -0.960
REMARK UNBOUND:                -0.647
ROOT
ATOM      7  C7  UNL A   1      49.968  20.692 296.528  1.00  0.00    +0.000 C 
ATOM      8  C8  UNL A   1      50.232  20.302 295.190  1.00  0.00    +0.000 C 
ATOM      9  C9  UNL A   1      50.037  18.971 294.806  1.00  0.00    +0.000 C 
ATOM     10  O1  UNL A   1      50.373  18.827 293.384  1.00  0.00    +0.000 O 
ATOM     11  C10 UNL A   1      49.620  17.669 293.015  1.00  0.00    +0.000 C 
ATOM     14  C13 UNL A   1      50.515  16.691 294.018  1.00  0.00    +0.000 C 
ATOM     15  C14 UNL A   1      51.386  15.628 293.371  1.00  0.00    +0.000 C 
ATOM     16  C15 UNL A   1      51.051  14.283 292.856  1.00  0.00    +0.000 C 
ATOM     17  C16 UNL A   1      49.681  13.895 293.455  1.00  0.00    +0.000 C 
ATOM     19  C18 UNL A   1      49.012  14.769 294.378  1.00  0.00    +0.000 C 
ATOM     20  C19 UNL A   1      49.685  16.214 295.145  1.00  0.00    +0.000 C 
ATOM     21  C20 UNL A   1      49.476  17.846 295.637  1.00  0.00    +0.000 C 
ATOM     22  C21 UNL A   1      49.291  18.284 296.979  1.00  0.00    +0.000 C 
ATOM     24  C22 UNL A   1      49.539  19.680 297.443  1.00  0.00    +0.000 C 
ATOM     37  H10 UNL A   1      50.609  21.022 294.493  1.00  0.00    +0.000 H 
ATOM     44  H17 UNL A   1      51.375  17.253 294.441  1.00  0.00    +0.000 H 
ATOM     45  H18 UNL A   1      50.529  15.759 292.768  1.00  0.00    +0.000 H 
ATOM     46  H19 UNL A   1      51.704  15.217 294.336  1.00  0.00    +0.000 H 
ATOM     47  H20 UNL A   1      51.866  13.570 293.018  1.00  0.00    +0.000 H 
ATOM     48  H21 UNL A   1      50.978  14.350 291.742  1.00  0.00    +0.000 H 
ATOM     52  H25 UNL A   1      48.048  14.455 294.769  1.00  0.00    +0.000 H 
ATOM     53  H26 UNL A   1      50.259  15.782 295.978  1.00  0.00    +0.000 H 
ENDROOT
BRANCH    7    6
ATOM     35  H8  UNL A   1      49.954  22.338 297.933  1.00  0.00    +0.000 H 
ATOM     36  H9  UNL A   1      51.256  22.408 296.824  1.00  0.00    +0.000 H 
ATOM      6  C6  UNL A   1      50.186  22.166 296.872  1.00  0.00    +0.000 C 
BRANCH    6    5
ATOM     33  H6  UNL A   1      48.814  22.667 295.264  1.00  0.00    +0.000 H 
ATOM     34  H7  UNL A   1      48.628  23.701 296.658  1.00  0.00    +0.000 H 
ATOM      5  C5  UNL A   1      49.379  23.197 296.044  1.00  0.00    +0.000 C 
BRANCH    5    4
ATOM      4  C4  UNL A   1      50.249  24.269 295.388  1.00  0.00    +0.000 C 
ATOM     31  H4  UNL A   1      49.674  25.196 295.285  1.00  0.00    +0.000 H 
ATOM     32  H5  UNL A   1      51.108  24.490 296.035  1.00  0.00    +0.000 H 
BRANCH    4    3
ATOM      3  C3  UNL A   1      50.737  23.838 294.004  1.00  0.00    +0.000 C 
ATOM     29  H2  UNL A   1      50.977  24.715 293.395  1.00  0.00    +0.000 H 
ATOM     30  H3  UNL A   1      51.649  23.234 294.094  1.00  0.00    +0.000 H 
BRANCH    3    2
ATOM      2  C2  UNL A   1      49.680  23.016 293.283  1.00  0.00    +0.000 C 
BRANCH    2    1
ATOM      1  C1  UNL A   1      48.773  22.312 292.666  1.00  0.00    +0.000 C 
ATOM     28  H1  UNL A   1      48.033  21.741 292.155  1.00  0.00    +0.000 H 
ENDBRANCH    2    1
ENDBRANCH    3    2
ENDBRANCH    4    3
ENDBRANCH    5    4
ENDBRANCH    6    5
ENDBRANCH    7    6
BRANCH   11   12
ATOM     12  C11 UNL A   1      49.431  17.083 291.559  1.00  0.00    +0.000 C 
ATOM     38  H11 UNL A   1      48.604  16.408 291.332  1.00  0.00    +0.000 H 
ATOM     39  H12 UNL A   1      50.310  16.587 291.156  1.00  0.00    +0.000 H 
ATOM     40  H13 UNL A   1      49.164  17.939 290.907  1.00  0.00    +0.000 H 
ENDBRANCH   11   12
BRANCH   11   13
ATOM     41  H14 UNL A   1      48.156  19.390 293.551  1.00  0.00    +0.000 H 
ATOM     42  H15 UNL A   1      47.382  17.793 293.383  1.00  0.00    +0.000 H 
ATOM     43  H16 UNL A   1      48.006  18.759 292.019  1.00  0.00    +0.000 H 
ATOM     13  C12 UNL A   1      48.220  18.414 293.053  1.00  0.00    +0.000 C 
ENDBRANCH   11   13
BRANCH   17   18
ATOM     49  H22 UNL A   1      50.018  11.736 293.129  1.00  0.00    +0.000 H 
ATOM     18  C17 UNL A   1      49.433  12.573 292.659  1.00  0.00    +0.000 C 
ATOM     51  H24 UNL A   1      48.420  12.158 292.767  1.00  0.00    +0.000 H 
ATOM     50  H23 UNL A   1      49.816  12.522 291.640  1.00  0.00    +0.000 H 
ENDBRANCH   17   18
BRANCH   22   23
ATOM     54  H27 UNL A   1      49.313  16.531 297.755  1.00  0.00    +0.000 H 
ATOM     23  O2  UNL A   1      48.888  17.371 297.929  1.00  0.00    +0.000 O 
ENDBRANCH   22   23
BRANCH   24   25
ATOM     25  C23 UNL A   1      49.463  20.104 298.962  1.00  0.00    +0.000 C 
ATOM     26  O3  UNL A   1      48.311  20.472 299.372  1.00  0.00    +0.000 O 
ATOM     27  O4  UNL A   1      50.473  20.108 299.637  1.00  0.00    +0.000 O 
ENDBRANCH   24   25
TORSDOF 11
ENDMDL
MODEL 12
REMARK VINA RESULT:    -6.158      6.968     10.485
REMARK INTER + INTRA:          -9.864
REMARK INTER:                  -9.024
REMARK INTRA:                  -0.841
REMARK UNBOUND:                -0.647
ROOT
ATOM      7  C7  UNL A   1      35.262  43.684 304.255  1.00  0.00    +0.000 C 
ATOM      8  C8  UNL A   1      35.917  43.675 302.997  1.00  0.00    +0.000 C 
ATOM      9  C9  UNL A   1      35.586  44.637 302.037  1.00  0.00    +0.000 C 
ATOM     10  O1  UNL A   1      36.400  44.417 300.836  1.00  0.00    +0.000 O 
ATOM     11  C10 UNL A   1      36.393  45.713 300.230  1.00  0.00    +0.000 C 
ATOM     14  C13 UNL A   1      34.755  45.642 299.952  1.00  0.00    +0.000 C 
ATOM     15  C14 UNL A   1      34.288  45.592 298.508  1.00  0.00    +0.000 C 
ATOM     16  C15 UNL A   1      34.105  46.669 297.510  1.00  0.00    +0.000 C 
ATOM     17  C16 UNL A   1      34.067  48.004 298.286  1.00  0.00    +0.000 C 
ATOM     19  C18 UNL A   1      34.145  48.020 299.720  1.00  0.00    +0.000 C 
ATOM     20  C19 UNL A   1      34.047  46.624 300.801  1.00  0.00    +0.000 C 
ATOM     21  C20 UNL A   1      34.636  45.798 302.187  1.00  0.00    +0.000 C 
ATOM     22  C21 UNL A   1      33.968  45.715 303.441  1.00  0.00    +0.000 C 
ATOM     24  C22 UNL A   1      34.252  44.673 304.472  1.00  0.00    +0.000 C 
ATOM     37  H10 UNL A   1      36.637  42.913 302.781  1.00  0.00    +0.000 H 
ATOM     44  H17 UNL A   1      34.364  44.631 300.198  1.00  0.00    +0.000 H 
ATOM     45  H18 UNL A   1      35.173  46.167 298.544  1.00  0.00    +0.000 H 
ATOM     46  H19 UNL A   1      33.228  45.625 298.788  1.00  0.00    +0.000 H 
ATOM     47  H20 UNL A   1      33.256  46.471 296.849  1.00  0.00    +0.000 H 
ATOM     48  H21 UNL A   1      34.986  46.651 296.821  1.00  0.00    +0.000 H 
ATOM     52  H25 UNL A   1      34.119  48.985 300.221  1.00  0.00    +0.000 H 
ATOM     53  H26 UNL A   1      32.961  46.464 300.868  1.00  0.00    +0.000 H 
ENDROOT
BRANCH    7    6
ATOM     35  H8  UNL A   1      34.999  42.616 306.119  1.00  0.00    +0.000 H 
ATOM     36  H9  UNL A   1      35.530  41.614 304.836  1.00  0.00    +0.000 H 
ATOM      6  C6  UNL A   1      35.688  42.615 305.262  1.00  0.00    +0.000 C 
BRANCH    6    5
ATOM     33  H6  UNL A   1      37.794  42.083 305.223  1.00  0.00    +0.000 H 
ATOM     34  H7  UNL A   1      37.522  43.738 305.710  1.00  0.00    +0.000 H 
ATOM      5  C5  UNL A   1      37.129  42.724 305.820  1.00  0.00    +0.000 C 
BRANCH    5    4
ATOM      4  C4  UNL A   1      37.246  42.329 307.292  1.00  0.00    +0.000 C 
ATOM     31  H4  UNL A   1      37.817  41.397 307.378  1.00  0.00    +0.000 H 
ATOM     32  H5  UNL A   1      37.805  43.102 307.835  1.00  0.00    +0.000 H 
BRANCH    4    3
ATOM      3  C3  UNL A   1      35.875  42.127 307.938  1.00  0.00    +0.000 C 
ATOM     29  H2  UNL A   1      35.086  42.183 307.181  1.00  0.00    +0.000 H 
ATOM     30  H3  UNL A   1      35.818  41.138 308.408  1.00  0.00    +0.000 H 
BRANCH    3    2
ATOM      2  C2  UNL A   1      35.610  43.184 308.998  1.00  0.00    +0.000 C 
BRANCH    2    1
ATOM      1  C1  UNL A   1      35.383  44.090 309.908  1.00  0.00    +0.000 C 
ATOM     28  H1  UNL A   1      35.191  44.828 310.651  1.00  0.00    +0.000 H 
ENDBRANCH    2    1
ENDBRANCH    3    2
ENDBRANCH    4    3
ENDBRANCH    5    4
ENDBRANCH    6    5
ENDBRANCH    7    6
BRANCH   11   12
ATOM     12  C11 UNL A   1      37.231  46.177 298.972  1.00  0.00    +0.000 C 
ATOM     38  H11 UNL A   1      37.668  47.176 298.931  1.00  0.00    +0.000 H 
ATOM     39  H12 UNL A   1      36.717  46.063 298.021  1.00  0.00    +0.000 H 
ATOM     40  H13 UNL A   1      38.155  45.564 298.964  1.00  0.00    +0.000 H 
ENDBRANCH   11   12
BRANCH   11   13
ATOM     41  H14 UNL A   1      37.378  45.949 302.319  1.00  0.00    +0.000 H 
ATOM     42  H15 UNL A   1      37.331  47.447 301.356  1.00  0.00    +0.000 H 
ATOM     43  H16 UNL A   1      38.404  46.064 301.015  1.00  0.00    +0.000 H 
ATOM     13  C12 UNL A   1      37.371  46.356 301.300  1.00  0.00    +0.000 C 
ENDBRANCH   11   13
BRANCH   17   18
ATOM     49  H22 UNL A   1      35.064  48.962 296.563  1.00  0.00    +0.000 H 
ATOM     18  C17 UNL A   1      34.063  48.990 297.073  1.00  0.00    +0.000 C 
ATOM     51  H24 UNL A   1      33.431  48.675 296.230  1.00  0.00    +0.000 H 
ATOM     50  H23 UNL A   1      33.993  50.055 297.293  1.00  0.00    +0.000 H 
ENDBRANCH   17   18
BRANCH   22   23
ATOM     54  H27 UNL A   1      33.002  46.834 304.663  1.00  0.00    +0.000 H 
ATOM     23  O2  UNL A   1      32.973  46.624 303.729  1.00  0.00    +0.000 O 
ENDBRANCH   22   23
BRANCH   24   25
ATOM     25  C23 UNL A   1      33.400  44.519 305.791  1.00  0.00    +0.000 C 
ATOM     26  O3  UNL A   1      33.834  45.165 306.803  1.00  0.00    +0.000 O 
ATOM     27  O4  UNL A   1      32.433  43.783 305.801  1.00  0.00    +0.000 O 
ENDBRANCH   24   25
TORSDOF 11
ENDMDL
MODEL 13
REMARK VINA RESULT:    -5.996     39.893     42.962
REMARK INTER + INTRA:          -9.622
REMARK INTER:                  -8.947
REMARK INTRA:                  -0.675
REMARK UNBOUND:                -0.647
ROOT
ATOM      7  C7  UNL A   1      47.818  19.709 325.984  1.00  0.00    +0.000 C 
ATOM      8  C8  UNL A   1      47.559  20.597 327.059  1.00  0.00    +0.000 C 
ATOM      9  C9  UNL A   1      48.468  20.685 328.119  1.00  0.00    +0.000 C 
ATOM     10  O1  UNL A   1      47.978  21.667 329.092  1.00  0.00    +0.000 O 
ATOM     11  C10 UNL A   1      49.184  22.061 329.752  1.00  0.00    +0.000 C 
ATOM     14  C13 UNL A   1      49.405  20.540 330.387  1.00  0.00    +0.000 C 
ATOM     15  C14 UNL A   1      49.305  20.387 331.895  1.00  0.00    +0.000 C 
ATOM     16  C15 UNL A   1      50.294  20.649 332.963  1.00  0.00    +0.000 C 
ATOM     17  C16 UNL A   1      51.681  20.730 332.288  1.00  0.00    +0.000 C 
ATOM     19  C18 UNL A   1      51.822  20.508 330.877  1.00  0.00    +0.000 C 
ATOM     20  C19 UNL A   1      50.585  19.893 329.773  1.00  0.00    +0.000 C 
ATOM     21  C20 UNL A   1      49.800  19.990 328.248  1.00  0.00    +0.000 C 
ATOM     22  C21 UNL A   1      49.971  19.073 327.174  1.00  0.00    +0.000 C 
ATOM     24  C22 UNL A   1      49.001  18.908 326.053  1.00  0.00    +0.000 C 
ATOM     37  H10 UNL A   1      46.655  21.169 327.067  1.00  0.00    +0.000 H 
ATOM     44  H17 UNL A   1      48.519  19.902 330.182  1.00  0.00    +0.000 H 
ATOM     45  H18 UNL A   1      49.699  21.345 331.691  1.00  0.00    +0.000 H 
ATOM     46  H19 UNL A   1      49.570  19.323 331.863  1.00  0.00    +0.000 H 
ATOM     47  H20 UNL A   1      50.201  19.934 333.788  1.00  0.00    +0.000 H 
ATOM     48  H21 UNL A   1      50.038  21.630 333.435  1.00  0.00    +0.000 H 
ATOM     52  H25 UNL A   1      52.818  20.581 330.446  1.00  0.00    +0.000 H 
ATOM     53  H26 UNL A   1      50.646  18.808 329.944  1.00  0.00    +0.000 H 
ENDROOT
BRANCH    7    6
ATOM     35  H8  UNL A   1      46.790  18.688 324.375  1.00  0.00    +0.000 H 
ATOM     36  H9  UNL A   1      45.774  19.741 325.264  1.00  0.00    +0.000 H 
ATOM      6  C6  UNL A   1      46.791  19.679 324.851  1.00  0.00    +0.000 C 
BRANCH    6    5
ATOM     33  H6  UNL A   1      45.973  21.106 323.431  1.00  0.00    +0.000 H 
ATOM     34  H7  UNL A   1      47.507  21.613 324.092  1.00  0.00    +0.000 H 
ATOM      5  C5  UNL A   1      46.964  20.736 323.731  1.00  0.00    +0.000 C 
BRANCH    5    4
ATOM      4  C4  UNL A   1      47.692  20.204 322.497  1.00  0.00    +0.000 C 
ATOM     31  H4  UNL A   1      48.677  20.679 322.419  1.00  0.00    +0.000 H 
ATOM     32  H5  UNL A   1      47.860  19.125 322.607  1.00  0.00    +0.000 H 
BRANCH    4    3
ATOM      3  C3  UNL A   1      46.910  20.481 321.211  1.00  0.00    +0.000 C 
ATOM     29  H2  UNL A   1      47.332  19.908 320.379  1.00  0.00    +0.000 H 
ATOM     30  H3  UNL A   1      45.863  20.176 321.330  1.00  0.00    +0.000 H 
BRANCH    3    2
ATOM      2  C2  UNL A   1      46.948  21.959 320.856  1.00  0.00    +0.000 C 
BRANCH    2    1
ATOM      1  C1  UNL A   1      46.979  23.226 320.551  1.00  0.00    +0.000 C 
ATOM     28  H1  UNL A   1      47.002  24.262 320.307  1.00  0.00    +0.000 H 
ENDBRANCH    2    1
ENDBRANCH    3    2
ENDBRANCH    4    3
ENDBRANCH    5    4
ENDBRANCH    6    5
ENDBRANCH    7    6
BRANCH   11   12
ATOM     12  C11 UNL A   1      49.352  23.222 330.811  1.00  0.00    +0.000 C 
ATOM     38  H11 UNL A   1      49.460  24.259 330.489  1.00  0.00    +0.000 H 
ATOM     39  H12 UNL A   1      50.158  23.070 331.523  1.00  0.00    +0.000 H 
ATOM     40  H13 UNL A   1      48.390  23.292 331.358  1.00  0.00    +0.000 H 
ENDBRANCH   11   12
BRANCH   11   13
ATOM     41  H14 UNL A   1      49.016  23.242 327.760  1.00  0.00    +0.000 H 
ATOM     42  H15 UNL A   1      50.602  22.476 328.028  1.00  0.00    +0.000 H 
ATOM     43  H16 UNL A   1      50.011  23.905 328.916  1.00  0.00    +0.000 H 
ATOM     13  C12 UNL A   1      49.727  22.905 328.524  1.00  0.00    +0.000 C 
ENDBRANCH   11   13
BRANCH   17   18
ATOM     49  H22 UNL A   1      51.856  21.704 334.264  1.00  0.00    +0.000 H 
ATOM     18  C17 UNL A   1      52.525  21.189 333.522  1.00  0.00    +0.000 C 
ATOM     51  H24 UNL A   1      52.890  20.369 334.157  1.00  0.00    +0.000 H 
ATOM     50  H23 UNL A   1      53.265  21.973 333.359  1.00  0.00    +0.000 H 
ENDBRANCH   17   18
BRANCH   22   23
ATOM     54  H27 UNL A   1      51.646  18.501 326.435  1.00  0.00    +0.000 H 
ATOM     23  O2  UNL A   1      51.080  18.254 327.167  1.00  0.00    +0.000 O 
ENDBRANCH   22   23
BRANCH   24   25
ATOM     25  C23 UNL A   1      49.145  17.785 324.953  1.00  0.00    +0.000 C 
ATOM     26  O3  UNL A   1      48.454  16.730 325.152  1.00  0.00    +0.000 O 
ATOM     27  O4  UNL A   1      49.914  17.945 324.026  1.00  0.00    +0.000 O 
ENDBRANCH   24   25
TORSDOF 11
ENDMDL
MODEL 14
REMARK VINA RESULT:    -5.990     14.701     16.491
REMARK INTER + INTRA:          -9.613
REMARK INTER:                  -8.617
REMARK INTRA:                  -0.996
REMARK UNBOUND:                -0.647
ROOT
ATOM      7  C7  UNL A   1      48.321  39.979 300.688  1.00  0.00    +0.000 C 
ATOM      8  C8  UNL A   1      47.998  40.503 301.966  1.00  0.00    +0.000 C 
ATOM      9  C9  UNL A   1      48.815  40.210 303.062  1.00  0.00    +0.000 C 
ATOM     10  O1  UNL A   1      48.273  40.868 304.256  1.00  0.00    +0.000 O 
ATOM     11  C10 UNL A   1      49.430  40.973 305.090  1.00  0.00    +0.000 C 
ATOM     14  C13 UNL A   1      49.552  39.321 305.233  1.00  0.00    +0.000 C 
ATOM     15  C14 UNL A   1      49.320  38.714 306.606  1.00  0.00    +0.000 C 
ATOM     16  C15 UNL A   1      50.222  38.578 307.770  1.00  0.00    +0.000 C 
ATOM     17  C16 UNL A   1      51.663  38.790 307.256  1.00  0.00    +0.000 C 
ATOM     19  C18 UNL A   1      51.917  39.008 305.860  1.00  0.00    +0.000 C 
ATOM     20  C19 UNL A   1      50.760  38.833 304.533  1.00  0.00    +0.000 C 
ATOM     21  C20 UNL A   1      50.111  39.439 303.063  1.00  0.00    +0.000 C 
ATOM     22  C21 UNL A   1      50.346  38.890 301.771  1.00  0.00    +0.000 C 
ATOM     24  C22 UNL A   1      49.470  39.133 300.588  1.00  0.00    +0.000 C 
ATOM     37  H10 UNL A   1      47.112  41.093 302.087  1.00  0.00    +0.000 H 
ATOM     44  H17 UNL A   1      48.668  38.826 304.776  1.00  0.00    +0.000 H 
ATOM     45  H18 UNL A   1      49.757  39.665 306.740  1.00  0.00    +0.000 H 
ATOM     46  H19 UNL A   1      49.556  37.699 306.262  1.00  0.00    +0.000 H 
ATOM     47  H20 UNL A   1      50.039  37.651 308.321  1.00  0.00    +0.000 H 
ATOM     48  H21 UNL A   1      49.955  39.378 308.505  1.00  0.00    +0.000 H 
ATOM     52  H25 UNL A   1      52.947  39.157 305.546  1.00  0.00    +0.000 H 
ATOM     53  H26 UNL A   1      50.775  37.746 304.361  1.00  0.00    +0.000 H 
ENDROOT
BRANCH    7    6
ATOM     35  H8  UNL A   1      47.089  41.409 299.627  1.00  0.00    +0.000 H 
ATOM     36  H9  UNL A   1      47.953  40.358 298.587  1.00  0.00    +0.000 H 
ATOM      6  C6  UNL A   1      47.393  40.356 299.533  1.00  0.00    +0.000 C 
BRANCH    6    5
ATOM     33  H6  UNL A   1      46.240  38.550 299.894  1.00  0.00    +0.000 H 
ATOM     34  H7  UNL A   1      45.252  39.989 299.863  1.00  0.00    +0.000 H 
ATOM      5  C5  UNL A   1      46.104  39.510 299.375  1.00  0.00    +0.000 C 
BRANCH    5    4
ATOM      4  C4  UNL A   1      45.725  39.239 297.919  1.00  0.00    +0.000 C 
ATOM     31  H4  UNL A   1      45.407  38.196 297.810  1.00  0.00    +0.000 H 
ATOM     32  H5  UNL A   1      44.871  39.870 297.640  1.00  0.00    +0.000 H 
BRANCH    4    3
ATOM      3  C3  UNL A   1      46.895  39.498 296.968  1.00  0.00    +0.000 C 
ATOM     29  H2  UNL A   1      46.590  40.181 296.168  1.00  0.00    +0.000 H 
ATOM     30  H3  UNL A   1      47.727  39.966 297.508  1.00  0.00    +0.000 H 
BRANCH    3    2
ATOM      2  C2  UNL A   1      47.389  38.203 296.344  1.00  0.00    +0.000 C 
BRANCH    2    1
ATOM      1  C1  UNL A   1      47.813  37.092 295.809  1.00  0.00    +0.000 C 
ATOM     28  H1  UNL A   1      48.158  36.182 295.377  1.00  0.00    +0.000 H 
ENDBRANCH    2    1
ENDBRANCH    3    2
ENDBRANCH    4    3
ENDBRANCH    5    4
ENDBRANCH    6    5
ENDBRANCH    7    6
BRANCH   11   12
ATOM     12  C11 UNL A   1      49.540  41.739 306.469  1.00  0.00    +0.000 C 
ATOM     38  H11 UNL A   1      50.509  41.882 306.951  1.00  0.00    +0.000 H 
ATOM     39  H12 UNL A   1      48.897  41.350 307.253  1.00  0.00    +0.000 H 
ATOM     40  H13 UNL A   1      49.270  42.795 306.265  1.00  0.00    +0.000 H 
ENDBRANCH   11   12
BRANCH   11   13
ATOM     41  H14 UNL A   1      50.151  43.136 304.653  1.00  0.00    +0.000 H 
ATOM     42  H15 UNL A   1      49.741  42.190 303.199  1.00  0.00    +0.000 H 
ATOM     43  H16 UNL A   1      51.191  41.918 304.202  1.00  0.00    +0.000 H 
ATOM     13  C12 UNL A   1      50.099  42.124 304.230  1.00  0.00    +0.000 C 
ENDBRANCH   11   13
BRANCH   17   18
ATOM     49  H22 UNL A   1      52.064  39.674 309.241  1.00  0.00    +0.000 H 
ATOM     18  C17 UNL A   1      52.412  38.799 308.628  1.00  0.00    +0.000 C 
ATOM     51  H24 UNL A   1      52.126  37.985 309.310  1.00  0.00    +0.000 H 
ATOM     50  H23 UNL A   1      53.484  38.994 308.612  1.00  0.00    +0.000 H 
ENDBRANCH   17   18
BRANCH   22   23
ATOM     54  H27 UNL A   1      51.769  38.178 300.701  1.00  0.00    +0.000 H 
ATOM     23  O2  UNL A   1      51.427  38.055 301.588  1.00  0.00    +0.000 O 
ENDBRANCH   22   23
BRANCH   24   25
ATOM     25  C23 UNL A   1      49.674  38.399 299.205  1.00  0.00    +0.000 C 
ATOM     26  O3  UNL A   1      49.174  37.227 299.127  1.00  0.00    +0.000 O 
ATOM     27  O4  UNL A   1      50.316  38.939 298.326  1.00  0.00    +0.000 O 
ENDBRANCH   24   25
TORSDOF 11
ENDMDL
MODEL 15
REMARK VINA RESULT:    -5.967      8.771     11.833
REMARK INTER + INTRA:          -9.579
REMARK INTER:                  -8.867
REMARK INTRA:                  -0.713
REMARK UNBOUND:                -0.647
ROOT
ATOM      7  C7  UNL A   1      27.093  42.575 295.677  1.00  0.00    +0.000 C 
ATOM      8  C8  UNL A   1      28.099  42.892 294.729  1.00  0.00    +0.000 C 
ATOM      9  C9  UNL A   1      27.746  43.504 293.522  1.00  0.00    +0.000 C 
ATOM     10  O1  UNL A   1      28.956  43.729 292.724  1.00  0.00    +0.000 O 
ATOM     11  C10 UNL A   1      28.556  44.805 291.871  1.00  0.00    +0.000 C 
ATOM     14  C13 UNL A   1      27.419  43.860 291.111  1.00  0.00    +0.000 C 
ATOM     15  C14 UNL A   1      27.641  43.535 289.644  1.00  0.00    +0.000 C 
ATOM     16  C15 UNL A   1      27.362  44.323 288.424  1.00  0.00    +0.000 C 
ATOM     17  C16 UNL A   1      26.378  45.446 288.824  1.00  0.00    +0.000 C 
ATOM     19  C18 UNL A   1      25.874  45.533 290.165  1.00  0.00    +0.000 C 
ATOM     20  C19 UNL A   1      26.056  44.326 291.446  1.00  0.00    +0.000 C 
ATOM     21  C20 UNL A   1      26.379  43.976 293.096  1.00  0.00    +0.000 C 
ATOM     22  C21 UNL A   1      25.409  43.575 294.057  1.00  0.00    +0.000 C 
ATOM     24  C22 UNL A   1      25.737  42.872 295.332  1.00  0.00    +0.000 C 
ATOM     37  H10 UNL A   1      29.118  42.631 294.931  1.00  0.00    +0.000 H 
ATOM     44  H17 UNL A   1      27.509  42.803 291.442  1.00  0.00    +0.000 H 
ATOM     45  H18 UNL A   1      28.038  44.496 289.828  1.00  0.00    +0.000 H 
ATOM     46  H19 UNL A   1      26.687  43.000 289.558  1.00  0.00    +0.000 H 
ATOM     47  H20 UNL A   1      27.052  43.686 287.590  1.00  0.00    +0.000 H 
ATOM     48  H21 UNL A   1      28.327  44.765 288.073  1.00  0.00    +0.000 H 
ATOM     52  H25 UNL A   1      25.188  46.343 290.400  1.00  0.00    +0.000 H 
ATOM     53  H26 UNL A   1      25.259  43.610 291.198  1.00  0.00    +0.000 H 
ENDROOT
BRANCH    7    6
ATOM     35  H8  UNL A   1      26.680  41.632 297.581  1.00  0.00    +0.000 H 
ATOM     36  H9  UNL A   1      28.027  40.955 296.771  1.00  0.00    +0.000 H 
ATOM      6  C6  UNL A   1      27.554  41.924 296.981  1.00  0.00    +0.000 C 
BRANCH    6    5
ATOM     33  H6  UNL A   1      29.111  42.098 298.487  1.00  0.00    +0.000 H 
ATOM     34  H7  UNL A   1      29.177  43.372 297.295  1.00  0.00    +0.000 H 
ATOM      5  C5  UNL A   1      28.482  42.771 297.888  1.00  0.00    +0.000 C 
BRANCH    5    4
ATOM      4  C4  UNL A   1      27.726  43.712 298.826  1.00  0.00    +0.000 C 
ATOM     31  H4  UNL A   1      28.375  43.998 299.661  1.00  0.00    +0.000 H 
ATOM     32  H5  UNL A   1      27.465  44.633 298.289  1.00  0.00    +0.000 H 
BRANCH    4    3
ATOM      3  C3  UNL A   1      26.461  43.061 299.387  1.00  0.00    +0.000 C 
ATOM     29  H2  UNL A   1      25.610  43.744 299.295  1.00  0.00    +0.000 H 
ATOM     30  H3  UNL A   1      26.221  42.150 298.826  1.00  0.00    +0.000 H 
BRANCH    3    2
ATOM      2  C2  UNL A   1      26.639  42.696 300.853  1.00  0.00    +0.000 C 
BRANCH    2    1
ATOM      1  C1  UNL A   1      26.792  42.383 302.109  1.00  0.00    +0.000 C 
ATOM     28  H1  UNL A   1      26.919  42.121 303.133  1.00  0.00    +0.000 H 
ENDBRANCH    2    1
ENDBRANCH    3    2
ENDBRANCH    4    3
ENDBRANCH    5    4
ENDBRANCH    6    5
ENDBRANCH    7    6
BRANCH   11   12
ATOM     12  C11 UNL A   1      29.474  45.619 290.875  1.00  0.00    +0.000 C 
ATOM     38  H11 UNL A   1      29.049  46.108 289.997  1.00  0.00    +0.000 H 
ATOM     39  H12 UNL A   1      30.328  45.064 290.493  1.00  0.00    +0.000 H 
ATOM     40  H13 UNL A   1      29.836  46.506 291.432  1.00  0.00    +0.000 H 
ENDBRANCH   11   12
BRANCH   11   13
ATOM     41  H14 UNL A   1      29.465  46.552 293.100  1.00  0.00    +0.000 H 
ATOM     42  H15 UNL A   1      28.343  45.515 294.017  1.00  0.00    +0.000 H 
ATOM     43  H16 UNL A   1      27.841  46.672 292.757  1.00  0.00    +0.000 H 
ATOM     13  C12 UNL A   1      28.590  45.895 293.022  1.00  0.00    +0.000 C 
ENDBRANCH   11   13
BRANCH   17   18
ATOM     49  H22 UNL A   1      27.421  46.521 287.199  1.00  0.00    +0.000 H 
ATOM     18  C17 UNL A   1      26.368  46.249 287.482  1.00  0.00    +0.000 C 
ATOM     51  H24 UNL A   1      26.098  45.655 286.596  1.00  0.00    +0.000 H 
ATOM     50  H23 UNL A   1      25.913  47.239 287.495  1.00  0.00    +0.000 H 
ENDBRANCH   17   18
BRANCH   22   23
ATOM     54  H27 UNL A   1      23.702  43.051 293.358  1.00  0.00    +0.000 H 
ATOM     23  O2  UNL A   1      24.076  43.814 293.800  1.00  0.00    +0.000 O 
ENDBRANCH   22   23
BRANCH   24   25
ATOM     25  C23 UNL A   1      24.632  42.313 296.311  1.00  0.00    +0.000 C 
ATOM     26  O3  UNL A   1      24.027  43.190 297.013  1.00  0.00    +0.000 O 
ATOM     27  O4  UNL A   1      24.446  41.115 296.387  1.00  0.00    +0.000 O 
ENDBRANCH   24   25
TORSDOF 11
ENDMDL
MODEL 16
REMARK VINA RESULT:    -5.947     25.333     30.040
REMARK INTER + INTRA:          -9.549
REMARK INTER:                  -8.848
REMARK INTRA:                  -0.701
REMARK UNBOUND:                -0.647
ROOT
ATOM      7  C7  UNL A   1      50.476  19.276 296.059  1.00  0.00    +0.000 C 
ATOM      8  C8  UNL A   1      50.156  18.119 295.305  1.00  0.00    +0.000 C 
ATOM      9  C9  UNL A   1      49.021  17.370 295.633  1.00  0.00    +0.000 C 
ATOM     10  O1  UNL A   1      48.909  16.235 294.709  1.00  0.00    +0.000 O 
ATOM     11  C10 UNL A   1      47.512  15.937 294.770  1.00  0.00    +0.000 C 
ATOM     14  C13 UNL A   1      47.615  15.492 296.369  1.00  0.00    +0.000 C 
ATOM     15  C14 UNL A   1      47.359  14.034 296.711  1.00  0.00    +0.000 C 
ATOM     16  C15 UNL A   1      46.094  13.290 296.898  1.00  0.00    +0.000 C 
ATOM     17  C16 UNL A   1      44.978  14.338 297.107  1.00  0.00    +0.000 C 
ATOM     19  C18 UNL A   1      45.287  15.739 297.147  1.00  0.00    +0.000 C 
ATOM     20  C19 UNL A   1      46.898  16.466 297.220  1.00  0.00    +0.000 C 
ATOM     21  C20 UNL A   1      47.984  17.683 296.683  1.00  0.00    +0.000 C 
ATOM     22  C21 UNL A   1      48.393  18.815 297.441  1.00  0.00    +0.000 C 
ATOM     24  C22 UNL A   1      49.625  19.609 297.160  1.00  0.00    +0.000 C 
ATOM     37  H10 UNL A   1      50.803  17.808 294.511  1.00  0.00    +0.000 H 
ATOM     44  H17 UNL A   1      48.676  15.466 296.697  1.00  0.00    +0.000 H 
ATOM     45  H18 UNL A   1      46.756  14.284 295.882  1.00  0.00    +0.000 H 
ATOM     46  H19 UNL A   1      47.454  14.210 297.790  1.00  0.00    +0.000 H 
ATOM     47  H20 UNL A   1      46.184  12.522 297.672  1.00  0.00    +0.000 H 
ATOM     48  H21 UNL A   1      45.901  12.704 295.966  1.00  0.00    +0.000 H 
ATOM     52  H25 UNL A   1      44.467  16.438 297.291  1.00  0.00    +0.000 H 
ATOM     53  H26 UNL A   1      47.133  16.389 298.292  1.00  0.00    +0.000 H 
ENDROOT
BRANCH    7    6
ATOM     35  H8  UNL A   1      52.361  20.241 296.508  1.00  0.00    +0.000 H 
ATOM     36  H9  UNL A   1      52.362  19.423 295.004  1.00  0.00    +0.000 H 
ATOM      6  C6  UNL A   1      51.721  20.055 295.633  1.00  0.00    +0.000 C 
BRANCH    6    5
ATOM     33  H6  UNL A   1      51.371  22.199 295.697  1.00  0.00    +0.000 H 
ATOM     34  H7  UNL A   1      52.342  21.712 294.331  1.00  0.00    +0.000 H 
ATOM      5  C5  UNL A   1      51.479  21.416 294.932  1.00  0.00    +0.000 C 
BRANCH    5    4
ATOM      4  C4  UNL A   1      50.247  21.428 294.028  1.00  0.00    +0.000 C 
ATOM     31  H4  UNL A   1      50.436  20.814 293.140  1.00  0.00    +0.000 H 
ATOM     32  H5  UNL A   1      49.399  20.975 294.559  1.00  0.00    +0.000 H 
BRANCH    4    3
ATOM      3  C3  UNL A   1      49.883  22.844 293.579  1.00  0.00    +0.000 C 
ATOM     29  H2  UNL A   1      50.340  23.063 292.609  1.00  0.00    +0.000 H 
ATOM     30  H3  UNL A   1      48.796  22.940 293.467  1.00  0.00    +0.000 H 
BRANCH    3    2
ATOM      2  C2  UNL A   1      50.360  23.876 294.589  1.00  0.00    +0.000 C 
BRANCH    2    1
ATOM      1  C1  UNL A   1      50.767  24.761 295.455  1.00  0.00    +0.000 C 
ATOM     28  H1  UNL A   1      51.105  25.486 296.158  1.00  0.00    +0.000 H 
ENDBRANCH    2    1
ENDBRANCH    3    2
ENDBRANCH    4    3
ENDBRANCH    5    4
ENDBRANCH    6    5
ENDBRANCH    7    6
BRANCH   11   12
ATOM     12  C11 UNL A   1      46.722  14.903 293.873  1.00  0.00    +0.000 C 
ATOM     38  H11 UNL A   1      45.858  15.220 293.286  1.00  0.00    +0.000 H 
ATOM     39  H12 UNL A   1      46.386  14.014 294.399  1.00  0.00    +0.000 H 
ATOM     40  H13 UNL A   1      47.409  14.605 293.055  1.00  0.00    +0.000 H 
ENDBRANCH   11   12
BRANCH   11   13
ATOM     41  H14 UNL A   1      46.007  17.448 293.853  1.00  0.00    +0.000 H 
ATOM     42  H15 UNL A   1      47.534  17.292 292.948  1.00  0.00    +0.000 H 
ATOM     43  H16 UNL A   1      47.378  18.107 294.527  1.00  0.00    +0.000 H 
ATOM     13  C12 UNL A   1      47.076  17.214 293.938  1.00  0.00    +0.000 C 
ENDBRANCH   11   13
BRANCH   17   18
ATOM     49  H22 UNL A   1      43.663  12.885 296.085  1.00  0.00    +0.000 H 
ATOM     18  C17 UNL A   1      43.741  13.381 297.090  1.00  0.00    +0.000 C 
ATOM     51  H24 UNL A   1      43.849  12.484 297.718  1.00  0.00    +0.000 H 
ATOM     50  H23 UNL A   1      42.754  13.837 297.153  1.00  0.00    +0.000 H 
ENDBRANCH   17   18
BRANCH   22   23
ATOM     54  H27 UNL A   1      47.727  20.145 298.651  1.00  0.00    +0.000 H 
ATOM     23  O2  UNL A   1      47.635  19.200 298.526  1.00  0.00    +0.000 O 
ENDBRANCH   22   23
BRANCH   24   25
ATOM     25  C23 UNL A   1      50.129  20.771 298.102  1.00  0.00    +0.000 C 
ATOM     26  O3  UNL A   1      49.679  21.934 297.828  1.00  0.00    +0.000 O 
ATOM     27  O4  UNL A   1      50.930  20.527 298.982  1.00  0.00    +0.000 O 
ENDBRANCH   24   25
TORSDOF 11
ENDMDL
MODEL 17
REMARK VINA RESULT:    -5.908      5.409      9.195
REMARK INTER + INTRA:          -9.490
REMARK INTER:                  -7.874
REMARK INTRA:                  -1.616
REMARK UNBOUND:                -0.647
ROOT
ATOM      7  C7  UNL A   1      34.055  46.474 299.550  1.00  0.00    +0.000 C 
ATOM      8  C8  UNL A   1      33.350  46.095 300.720  1.00  0.00    +0.000 C 
ATOM      9  C9  UNL A   1      34.035  45.480 301.773  1.00  0.00    +0.000 C 
ATOM     10  O1  UNL A   1      33.091  45.193 302.859  1.00  0.00    +0.000 O 
ATOM     11  C10 UNL A   1      33.955  45.128 303.996  1.00  0.00    +0.000 C 
ATOM     14  C13 UNL A   1      34.730  43.780 303.407  1.00  0.00    +0.000 C 
ATOM     15  C14 UNL A   1      34.562  42.480 304.176  1.00  0.00    +0.000 C 
ATOM     16  C15 UNL A   1      35.247  41.975 305.386  1.00  0.00    +0.000 C 
ATOM     17  C16 UNL A   1      36.530  42.816 305.566  1.00  0.00    +0.000 C 
ATOM     19  C18 UNL A   1      36.882  43.827 304.611  1.00  0.00    +0.000 C 
ATOM     20  C19 UNL A   1      36.124  44.108 303.038  1.00  0.00    +0.000 C 
ATOM     21  C20 UNL A   1      35.517  45.222 301.880  1.00  0.00    +0.000 C 
ATOM     22  C21 UNL A   1      36.155  45.566 300.655  1.00  0.00    +0.000 C 
ATOM     24  C22 UNL A   1      35.452  46.174 299.488  1.00  0.00    +0.000 C 
ATOM     37  H10 UNL A   1      32.293  46.253 300.776  1.00  0.00    +0.000 H 
ATOM     44  H17 UNL A   1      34.214  43.402 302.498  1.00  0.00    +0.000 H 
ATOM     45  H18 UNL A   1      34.537  43.275 304.871  1.00  0.00    +0.000 H 
ATOM     46  H19 UNL A   1      35.248  41.934 303.518  1.00  0.00    +0.000 H 
ATOM     47  H20 UNL A   1      35.383  40.889 305.353  1.00  0.00    +0.000 H 
ATOM     48  H21 UNL A   1      34.562  42.127 306.256  1.00  0.00    +0.000 H 
ATOM     52  H25 UNL A   1      37.792  44.397 304.783  1.00  0.00    +0.000 H 
ATOM     53  H26 UNL A   1      36.615  43.350 302.410  1.00  0.00    +0.000 H 
ENDROOT
BRANCH    7    6
ATOM     35  H8  UNL A   1      33.791  47.102 297.495  1.00  0.00    +0.000 H 
ATOM     36  H9  UNL A   1      32.338  46.577 298.232  1.00  0.00    +0.000 H 
ATOM      6  C6  UNL A   1      33.245  47.158 298.447  1.00  0.00    +0.000 C 
BRANCH    6    5
ATOM     33  H6  UNL A   1      32.312  49.016 297.813  1.00  0.00    +0.000 H 
ATOM     34  H7  UNL A   1      32.191  48.751 299.534  1.00  0.00    +0.000 H 
ATOM      5  C5  UNL A   1      32.870  48.643 298.684  1.00  0.00    +0.000 C 
BRANCH    5    4
ATOM      4  C4  UNL A   1      34.078  49.548 298.926  1.00  0.00    +0.000 C 
ATOM     31  H4  UNL A   1      34.999  49.001 298.693  1.00  0.00    +0.000 H 
ATOM     32  H5  UNL A   1      34.032  50.410 298.248  1.00  0.00    +0.000 H 
BRANCH    4    3
ATOM      3  C3  UNL A   1      34.147  50.030 300.376  1.00  0.00    +0.000 C 
ATOM     29  H2  UNL A   1      34.155  51.124 300.412  1.00  0.00    +0.000 H 
ATOM     30  H3  UNL A   1      33.268  49.684 300.934  1.00  0.00    +0.000 H 
BRANCH    3    2
ATOM      2  C2  UNL A   1      35.396  49.508 301.066  1.00  0.00    +0.000 C 
BRANCH    2    1
ATOM      1  C1  UNL A   1      36.468  49.061 301.659  1.00  0.00    +0.000 C 
ATOM     28  H1  UNL A   1      37.347  48.696 302.137  1.00  0.00    +0.000 H 
ENDBRANCH    2    1
ENDBRANCH    3    2
ENDBRANCH    4    3
ENDBRANCH    5    4
ENDBRANCH    6    5
ENDBRANCH    7    6
BRANCH   11   12
ATOM     12  C11 UNL A   1      33.523  45.001 305.511  1.00  0.00    +0.000 C 
ATOM     38  H11 UNL A   1      32.728  44.315 305.810  1.00  0.00    +0.000 H 
ATOM     39  H12 UNL A   1      33.264  45.944 305.986  1.00  0.00    +0.000 H 
ATOM     40  H13 UNL A   1      34.380  44.546 306.047  1.00  0.00    +0.000 H 
ENDBRANCH   11   12
BRANCH   11   13
ATOM     41  H14 UNL A   1      34.708  47.116 304.929  1.00  0.00    +0.000 H 
ATOM     42  H15 UNL A   1      33.335  47.304 303.808  1.00  0.00    +0.000 H 
ATOM     43  H16 UNL A   1      35.002  46.920 303.304  1.00  0.00    +0.000 H 
ATOM     13  C12 UNL A   1      34.209  46.692 304.049  1.00  0.00    +0.000 C 
ENDBRANCH   11   13
BRANCH   17   18
ATOM     49  H22 UNL A   1      36.360  42.733 307.768  1.00  0.00    +0.000 H 
ATOM     18  C17 UNL A   1      36.985  42.268 306.958  1.00  0.00    +0.000 C 
ATOM     51  H24 UNL A   1      36.740  41.210 307.136  1.00  0.00    +0.000 H 
ATOM     50  H23 UNL A   1      37.981  42.546 307.305  1.00  0.00    +0.000 H 
ENDBRANCH   17   18
BRANCH   22   23
ATOM     54  H27 UNL A   1      37.606  44.511 299.978  1.00  0.00    +0.000 H 
ATOM     23  O2  UNL A   1      37.500  45.302 300.507  1.00  0.00    +0.000 O 
ENDBRANCH   22   23
BRANCH   24   25
ATOM     25  C23 UNL A   1      36.154  46.413 298.094  1.00  0.00    +0.000 C 
ATOM     26  O3  UNL A   1      36.845  47.483 298.005  1.00  0.00    +0.000 O 
ATOM     27  O4  UNL A   1      35.974  45.626 297.186  1.00  0.00    +0.000 O 
ENDBRANCH   24   25
TORSDOF 11
ENDMDL
MODEL 18
REMARK VINA RESULT:    -5.870      5.838      9.110
REMARK INTER + INTRA:          -9.433
REMARK INTER:                  -8.819
REMARK INTRA:                  -0.614
REMARK UNBOUND:                -0.647
ROOT
ATOM      7  C7  UNL A   1      33.486  46.391 299.913  1.00  0.00    +0.000 C 
ATOM      8  C8  UNL A   1      32.925  45.973 301.146  1.00  0.00    +0.000 C 
ATOM      9  C9  UNL A   1      33.742  45.380 302.114  1.00  0.00    +0.000 C 
ATOM     10  O1  UNL A   1      32.930  45.044 303.289  1.00  0.00    +0.000 O 
ATOM     11  C10 UNL A   1      33.911  45.008 304.329  1.00  0.00    +0.000 C 
ATOM     14  C13 UNL A   1      34.675  43.699 303.646  1.00  0.00    +0.000 C 
ATOM     15  C14 UNL A   1      34.644  42.387 304.413  1.00  0.00    +0.000 C 
ATOM     16  C15 UNL A   1      35.473  41.903 305.538  1.00  0.00    +0.000 C 
ATOM     17  C16 UNL A   1      36.731  42.797 305.593  1.00  0.00    +0.000 C 
ATOM     19  C18 UNL A   1      36.939  43.829 304.618  1.00  0.00    +0.000 C 
ATOM     20  C19 UNL A   1      36.007  44.089 303.136  1.00  0.00    +0.000 C 
ATOM     21  C20 UNL A   1      35.236  45.185 302.062  1.00  0.00    +0.000 C 
ATOM     22  C21 UNL A   1      35.727  45.565 300.781  1.00  0.00    +0.000 C 
ATOM     24  C22 UNL A   1      34.880  46.151 299.701  1.00  0.00    +0.000 C 
ATOM     37  H10 UNL A   1      31.873  46.085 301.315  1.00  0.00    +0.000 H 
ATOM     44  H17 UNL A   1      34.083  43.306 302.792  1.00  0.00    +0.000 H 
ATOM     45  H18 UNL A   1      34.659  43.175 305.116  1.00  0.00    +0.000 H 
ATOM     46  H19 UNL A   1      35.279  41.876 303.680  1.00  0.00    +0.000 H 
ATOM     47  H20 UNL A   1      35.650  40.824 305.478  1.00  0.00    +0.000 H 
ATOM     48  H21 UNL A   1      34.877  42.019 306.477  1.00  0.00    +0.000 H 
ATOM     52  H25 UNL A   1      37.837  44.436 304.701  1.00  0.00    +0.000 H 
ATOM     53  H26 UNL A   1      36.461  43.358 302.451  1.00  0.00    +0.000 H 
ENDROOT
BRANCH    7    6
ATOM     35  H8  UNL A   1      32.742  48.127 298.855  1.00  0.00    +0.000 H 
ATOM     36  H9  UNL A   1      32.776  46.712 297.892  1.00  0.00    +0.000 H 
ATOM      6  C6  UNL A   1      32.537  47.048 298.910  1.00  0.00    +0.000 C 
BRANCH    6    5
ATOM     33  H6  UNL A   1      30.866  46.634 300.237  1.00  0.00    +0.000 H 
ATOM     34  H7  UNL A   1      30.476  47.805 299.003  1.00  0.00    +0.000 H 
ATOM      5  C5  UNL A   1      31.020  46.873 299.175  1.00  0.00    +0.000 C 
BRANCH    5    4
ATOM      4  C4  UNL A   1      30.372  45.783 298.320  1.00  0.00    +0.000 C 
ATOM     31  H4  UNL A   1      30.133  46.187 297.330  1.00  0.00    +0.000 H 
ATOM     32  H5  UNL A   1      31.085  44.962 298.172  1.00  0.00    +0.000 H 
BRANCH    4    3
ATOM      3  C3  UNL A   1      29.088  45.249 298.957  1.00  0.00    +0.000 C 
ATOM     29  H2  UNL A   1      29.247  45.047 300.021  1.00  0.00    +0.000 H 
ATOM     30  H3  UNL A   1      28.285  45.992 298.873  1.00  0.00    +0.000 H 
BRANCH    3    2
ATOM      2  C2  UNL A   1      28.635  43.966 298.278  1.00  0.00    +0.000 C 
BRANCH    2    1
ATOM      1  C1  UNL A   1      28.247  42.866 297.695  1.00  0.00    +0.000 C 
ATOM     28  H1  UNL A   1      27.932  41.970 297.214  1.00  0.00    +0.000 H 
ENDBRANCH    2    1
ENDBRANCH    3    2
ENDBRANCH    4    3
ENDBRANCH    5    4
ENDBRANCH    6    5
ENDBRANCH    7    6
BRANCH   11   12
ATOM     12  C11 UNL A   1      33.647  44.852 305.880  1.00  0.00    +0.000 C 
ATOM     38  H11 UNL A   1      32.658  45.044 306.299  1.00  0.00    +0.000 H 
ATOM     39  H12 UNL A   1      34.327  45.416 306.512  1.00  0.00    +0.000 H 
ATOM     40  H13 UNL A   1      33.745  43.772 306.109  1.00  0.00    +0.000 H 
ENDBRANCH   11   12
BRANCH   11   13
ATOM     41  H14 UNL A   1      33.414  47.180 304.981  1.00  0.00    +0.000 H 
ATOM     42  H15 UNL A   1      34.214  47.055 303.393  1.00  0.00    +0.000 H 
ATOM     43  H16 UNL A   1      35.028  46.781 304.956  1.00  0.00    +0.000 H 
ATOM     13  C12 UNL A   1      34.104  46.582 304.373  1.00  0.00    +0.000 C 
ENDBRANCH   11   13
BRANCH   17   18
ATOM     49  H22 UNL A   1      38.402  41.904 306.730  1.00  0.00    +0.000 H 
ATOM     18  C17 UNL A   1      37.353  42.258 306.923  1.00  0.00    +0.000 C 
ATOM     51  H24 UNL A   1      37.568  43.033 307.674  1.00  0.00    +0.000 H 
ATOM     50  H23 UNL A   1      36.922  41.351 307.346  1.00  0.00    +0.000 H 
ENDBRANCH   17   18
BRANCH   22   23
ATOM     54  H27 UNL A   1      37.497  45.005 301.264  1.00  0.00    +0.000 H 
ATOM     23  O2  UNL A   1      37.058  45.360 300.489  1.00  0.00    +0.000 O 
ENDBRANCH   22   23
BRANCH   24   25
ATOM     25  C23 UNL A   1      35.421  46.431 298.245  1.00  0.00    +0.000 C 
ATOM     26  O3  UNL A   1      35.962  47.574 298.071  1.00  0.00    +0.000 O 
ATOM     27  O4  UNL A   1      35.261  45.599 297.374  1.00  0.00    +0.000 O 
ENDBRANCH   24   25
TORSDOF 11
ENDMDL
MODEL 19
REMARK VINA RESULT:    -5.861     23.276     26.313
REMARK INTER + INTRA:          -9.421
REMARK INTER:                  -8.017
REMARK INTRA:                  -1.404
REMARK UNBOUND:                -0.647
ROOT
ATOM      7  C7  UNL A   1      25.869  30.238 310.945  1.00  0.00    +0.000 C 
ATOM      8  C8  UNL A   1      25.678  28.875 310.604  1.00  0.00    +0.000 C 
ATOM      9  C9  UNL A   1      26.243  27.875 311.402  1.00  0.00    +0.000 C 
ATOM     10  O1  UNL A   1      25.900  26.562 310.843  1.00  0.00    +0.000 O 
ATOM     11  C10 UNL A   1      26.016  25.711 311.986  1.00  0.00    +0.000 C 
ATOM     14  C13 UNL A   1      27.652  25.985 312.100  1.00  0.00    +0.000 C 
ATOM     15  C14 UNL A   1      28.581  24.811 311.843  1.00  0.00    +0.000 C 
ATOM     16  C15 UNL A   1      29.010  23.704 312.726  1.00  0.00    +0.000 C 
ATOM     17  C16 UNL A   1      28.687  24.128 314.176  1.00  0.00    +0.000 C 
ATOM     19  C18 UNL A   1      28.129  25.421 314.453  1.00  0.00    +0.000 C 
ATOM     20  C19 UNL A   1      27.959  26.766 313.318  1.00  0.00    +0.000 C 
ATOM     21  C20 UNL A   1      26.999  28.047 312.695  1.00  0.00    +0.000 C 
ATOM     22  C21 UNL A   1      27.209  29.432 312.949  1.00  0.00    +0.000 C 
ATOM     24  C22 UNL A   1      26.672  30.530 312.093  1.00  0.00    +0.000 C 
ATOM     37  H10 UNL A   1      25.131  28.623 309.719  1.00  0.00    +0.000 H 
ATOM     44  H17 UNL A   1      28.010  26.564 311.222  1.00  0.00    +0.000 H 
ATOM     45  H18 UNL A   1      27.697  24.436 312.282  1.00  0.00    +0.000 H 
ATOM     46  H19 UNL A   1      29.479  25.394 312.081  1.00  0.00    +0.000 H 
ATOM     47  H20 UNL A   1      30.045  23.405 312.530  1.00  0.00    +0.000 H 
ATOM     48  H21 UNL A   1      28.417  22.796 312.450  1.00  0.00    +0.000 H 
ATOM     52  H25 UNL A   1      27.915  25.672 315.489  1.00  0.00    +0.000 H 
ATOM     53  H26 UNL A   1      28.968  27.204 313.331  1.00  0.00    +0.000 H 
ENDROOT
BRANCH    7    6
ATOM     35  H8  UNL A   1      24.256  30.883 309.654  1.00  0.00    +0.000 H 
ATOM     36  H9  UNL A   1      24.881  32.140 310.633  1.00  0.00    +0.000 H 
ATOM      6  C6  UNL A   1      25.208  31.276 310.038  1.00  0.00    +0.000 C 
BRANCH    6    5
ATOM     33  H6  UNL A   1      25.457  32.515 308.270  1.00  0.00    +0.000 H 
ATOM     34  H7  UNL A   1      26.949  32.274 309.144  1.00  0.00    +0.000 H 
ATOM      5  C5  UNL A   1      26.038  31.763 308.823  1.00  0.00    +0.000 C 
BRANCH    5    4
ATOM      4  C4  UNL A   1      26.438  30.639 307.867  1.00  0.00    +0.000 C 
ATOM     31  H4  UNL A   1      26.139  29.674 308.289  1.00  0.00    +0.000 H 
ATOM     32  H5  UNL A   1      25.902  30.758 306.917  1.00  0.00    +0.000 H 
BRANCH    4    3
ATOM      3  C3  UNL A   1      27.947  30.618 307.614  1.00  0.00    +0.000 C 
ATOM     29  H2  UNL A   1      28.174  30.022 306.724  1.00  0.00    +0.000 H 
ATOM     30  H3  UNL A   1      28.317  31.636 307.438  1.00  0.00    +0.000 H 
BRANCH    3    2
ATOM      2  C2  UNL A   1      28.692  30.028 308.800  1.00  0.00    +0.000 C 
BRANCH    2    1
ATOM      1  C1  UNL A   1      29.330  29.523 309.819  1.00  0.00    +0.000 C 
ATOM     28  H1  UNL A   1      29.854  29.116 310.651  1.00  0.00    +0.000 H 
ENDBRANCH    2    1
ENDBRANCH    3    2
ENDBRANCH    4    3
ENDBRANCH    5    4
ENDBRANCH    6    5
ENDBRANCH    7    6
BRANCH   11   12
ATOM     12  C11 UNL A   1      25.619  24.184 312.077  1.00  0.00    +0.000 C 
ATOM     38  H11 UNL A   1      26.181  23.428 311.526  1.00  0.00    +0.000 H 
ATOM     39  H12 UNL A   1      24.578  23.974 311.848  1.00  0.00    +0.000 H 
ATOM     40  H13 UNL A   1      25.836  23.863 313.116  1.00  0.00    +0.000 H 
ENDBRANCH   11   12
BRANCH   11   13
ATOM     41  H14 UNL A   1      23.726  25.839 312.347  1.00  0.00    +0.000 H 
ATOM     42  H15 UNL A   1      24.614  27.335 312.730  1.00  0.00    +0.000 H 
ATOM     43  H16 UNL A   1      24.677  25.848 313.711  1.00  0.00    +0.000 H 
ATOM     13  C12 UNL A   1      24.691  26.246 312.674  1.00  0.00    +0.000 C 
ENDBRANCH   11   13
BRANCH   17   18
ATOM     49  H22 UNL A   1      28.086  22.191 315.053  1.00  0.00    +0.000 H 
ATOM     18  C17 UNL A   1      29.028  22.785 314.902  1.00  0.00    +0.000 C 
ATOM     51  H24 UNL A   1      29.592  22.065 314.292  1.00  0.00    +0.000 H 
ATOM     50  H23 UNL A   1      29.379  22.849 315.932  1.00  0.00    +0.000 H 
ENDBRANCH   17   18
BRANCH   22   23
ATOM     54  H27 UNL A   1      27.740  30.691 314.295  1.00  0.00    +0.000 H 
ATOM     23  O2  UNL A   1      27.980  29.802 314.030  1.00  0.00    +0.000 O 
ENDBRANCH   22   23
BRANCH   24   25
ATOM     25  C23 UNL A   1      27.038  32.048 312.317  1.00  0.00    +0.000 C 
ATOM     26  O3  UNL A   1      26.223  32.708 313.045  1.00  0.00    +0.000 O 
ATOM     27  O4  UNL A   1      28.015  32.519 311.770  1.00  0.00    +0.000 O 
ENDBRANCH   24   25
TORSDOF 11
ENDMDL
MODEL 20
REMARK VINA RESULT:    -5.832     40.801     43.483
REMARK INTER + INTRA:          -9.377
REMARK INTER:                  -8.644
REMARK INTRA:                  -0.732
REMARK UNBOUND:                -0.647
ROOT
ATOM      7  C7  UNL A   1      47.857  19.735 325.843  1.00  0.00    +0.000 C 
ATOM      8  C8  UNL A   1      47.553  20.565 326.951  1.00  0.00    +0.000 C 
ATOM      9  C9  UNL A   1      48.430  20.616 328.040  1.00  0.00    +0.000 C 
ATOM     10  O1  UNL A   1      47.895  21.541 329.046  1.00  0.00    +0.000 O 
ATOM     11  C10 UNL A   1      49.075  21.922 329.758  1.00  0.00    +0.000 C 
ATOM     14  C13 UNL A   1      49.305  20.376 330.325  1.00  0.00    +0.000 C 
ATOM     15  C14 UNL A   1      49.165  20.147 331.821  1.00  0.00    +0.000 C 
ATOM     16  C15 UNL A   1      50.119  20.372 332.929  1.00  0.00    +0.000 C 
ATOM     17  C16 UNL A   1      51.523  20.509 332.299  1.00  0.00    +0.000 C 
ATOM     19  C18 UNL A   1      51.707  20.358 330.883  1.00  0.00    +0.000 C 
ATOM     20  C19 UNL A   1      50.512  19.778 329.715  1.00  0.00    +0.000 C 
ATOM     21  C20 UNL A   1      49.770  19.937 328.175  1.00  0.00    +0.000 C 
ATOM     22  C21 UNL A   1      49.987  19.076 327.063  1.00  0.00    +0.000 C 
ATOM     24  C22 UNL A   1      49.051  18.950 325.907  1.00  0.00    +0.000 C 
ATOM     37  H10 UNL A   1      46.639  21.122 326.961  1.00  0.00    +0.000 H 
ATOM     44  H17 UNL A   1      48.436  19.734 330.064  1.00  0.00    +0.000 H 
ATOM     45  H18 UNL A   1      49.548  21.120 331.675  1.00  0.00    +0.000 H 
ATOM     46  H19 UNL A   1      49.449  19.091 331.745  1.00  0.00    +0.000 H 
ATOM     47  H20 UNL A   1      50.015  19.617 333.715  1.00  0.00    +0.000 H 
ATOM     48  H21 UNL A   1      49.832  21.325 333.439  1.00  0.00    +0.000 H 
ATOM     52  H25 UNL A   1      52.713  20.468 330.486  1.00  0.00    +0.000 H 
ATOM     53  H26 UNL A   1      50.587  18.687 329.836  1.00  0.00    +0.000 H 
ENDROOT
BRANCH    7    6
ATOM     35  H8  UNL A   1      46.700  20.776 324.338  1.00  0.00    +0.000 H 
ATOM     36  H9  UNL A   1      47.314  19.272 323.797  1.00  0.00    +0.000 H 
ATOM      6  C6  UNL A   1      46.863  19.744 324.681  1.00  0.00    +0.000 C 
BRANCH    6    5
ATOM     33  H6  UNL A   1      45.291  19.107 326.039  1.00  0.00    +0.000 H 
ATOM     34  H7  UNL A   1      44.671  19.725 324.529  1.00  0.00    +0.000 H 
ATOM      5  C5  UNL A   1      45.473  19.117 324.954  1.00  0.00    +0.000 C 
BRANCH    5    4
ATOM      4  C4  UNL A   1      45.326  17.695 324.411  1.00  0.00    +0.000 C 
ATOM     31  H4  UNL A   1      46.110  17.503 323.670  1.00  0.00    +0.000 H 
ATOM     32  H5  UNL A   1      45.467  16.975 325.227  1.00  0.00    +0.000 H 
BRANCH    4    3
ATOM      3  C3  UNL A   1      43.963  17.475 323.753  1.00  0.00    +0.000 C 
ATOM     29  H2  UNL A   1      43.827  18.170 322.918  1.00  0.00    +0.000 H 
ATOM     30  H3  UNL A   1      43.893  16.455 323.355  1.00  0.00    +0.000 H 
BRANCH    3    2
ATOM      2  C2  UNL A   1      42.835  17.684 324.751  1.00  0.00    +0.000 C 
BRANCH    2    1
ATOM      1  C1  UNL A   1      41.867  17.862 325.606  1.00  0.00    +0.000 C 
ATOM     28  H1  UNL A   1      41.077  18.002 326.307  1.00  0.00    +0.000 H 
ENDBRANCH    2    1
ENDBRANCH    3    2
ENDBRANCH    4    3
ENDBRANCH    5    4
ENDBRANCH    6    5
ENDBRANCH    7    6
BRANCH   11   12
ATOM     12  C11 UNL A   1      49.193  23.033 330.876  1.00  0.00    +0.000 C 
ATOM     38  H11 UNL A   1      49.687  22.819 331.826  1.00  0.00    +0.000 H 
ATOM     39  H12 UNL A   1      48.248  23.492 331.156  1.00  0.00    +0.000 H 
ATOM     40  H13 UNL A   1      49.873  23.812 330.477  1.00  0.00    +0.000 H 
ENDBRANCH   11   12
BRANCH   11   13
ATOM     41  H14 UNL A   1      50.647  22.636 328.205  1.00  0.00    +0.000 H 
ATOM     42  H15 UNL A   1      49.528  23.909 328.757  1.00  0.00    +0.000 H 
ATOM     43  H16 UNL A   1      49.074  22.571 327.669  1.00  0.00    +0.000 H 
ATOM     13  C12 UNL A   1      49.638  22.833 328.589  1.00  0.00    +0.000 C 
ENDBRANCH   11   13
BRANCH   17   18
ATOM     49  H22 UNL A   1      51.835  21.813 334.055  1.00  0.00    +0.000 H 
ATOM     18  C17 UNL A   1      52.323  20.920 333.577  1.00  0.00    +0.000 C 
ATOM     51  H24 UNL A   1      52.245  20.211 334.414  1.00  0.00    +0.000 H 
ATOM     50  H23 UNL A   1      53.331  21.311 333.433  1.00  0.00    +0.000 H 
ENDBRANCH   17   18
BRANCH   22   23
ATOM     54  H27 UNL A   1      51.855  18.778 327.379  1.00  0.00    +0.000 H 
ATOM     23  O2  UNL A   1      51.109  18.276 327.048  1.00  0.00    +0.000 O 
ENDBRANCH   22   23
BRANCH   24   25
ATOM     25  C23 UNL A   1      49.246  17.885 324.759  1.00  0.00    +0.000 C 
ATOM     26  O3  UNL A   1      49.907  18.287 323.744  1.00  0.00    +0.000 O 
ATOM     27  O4  UNL A   1      48.737  16.787 324.865  1.00  0.00    +0.000 O 
ENDBRANCH   24   25
TORSDOF 11
ENDMDL
MODEL 21
REMARK VINA RESULT:    -5.710     35.545     39.199
REMARK INTER + INTRA:          -9.194
REMARK INTER:                  -9.107
REMARK INTRA:                  -0.088
REMARK UNBOUND:                -0.647
ROOT
ATOM      7  C7  UNL A   1      46.763  21.872 322.913  1.00  0.00    +0.000 C 
ATOM      8  C8  UNL A   1      46.415  21.473 324.228  1.00  0.00    +0.000 C 
ATOM      9  C9  UNL A   1      45.688  20.294 324.425  1.00  0.00    +0.000 C 
ATOM     10  O1  UNL A   1      45.461  20.103 325.862  1.00  0.00    +0.000 O 
ATOM     11  C10 UNL A   1      45.258  18.690 325.947  1.00  0.00    +0.000 C 
ATOM     14  C13 UNL A   1      43.859  18.776 325.053  1.00  0.00    +0.000 C 
ATOM     15  C14 UNL A   1      42.555  18.429 325.752  1.00  0.00    +0.000 C 
ATOM     16  C15 UNL A   1      41.931  17.121 326.045  1.00  0.00    +0.000 C 
ATOM     17  C16 UNL A   1      42.621  16.076 325.140  1.00  0.00    +0.000 C 
ATOM     19  C18 UNL A   1      43.626  16.475 324.196  1.00  0.00    +0.000 C 
ATOM     20  C19 UNL A   1      44.050  18.130 323.736  1.00  0.00    +0.000 C 
ATOM     21  C20 UNL A   1      45.268  19.288 323.384  1.00  0.00    +0.000 C 
ATOM     22  C21 UNL A   1      45.590  19.774 322.086  1.00  0.00    +0.000 C 
ATOM     24  C22 UNL A   1      46.316  21.053 321.829  1.00  0.00    +0.000 C 
ATOM     37  H10 UNL A   1      46.684  22.093 325.058  1.00  0.00    +0.000 H 
ATOM     44  H17 UNL A   1      43.576  19.836 324.876  1.00  0.00    +0.000 H 
ATOM     45  H18 UNL A   1      43.319  17.837 326.177  1.00  0.00    +0.000 H 
ATOM     46  H19 UNL A   1      41.965  18.544 324.835  1.00  0.00    +0.000 H 
ATOM     47  H20 UNL A   1      40.839  17.167 325.981  1.00  0.00    +0.000 H 
ATOM     48  H21 UNL A   1      42.121  16.883 327.121  1.00  0.00    +0.000 H 
ATOM     52  H25 UNL A   1      44.086  15.702 323.585  1.00  0.00    +0.000 H 
ATOM     53  H26 UNL A   1      43.269  18.367 322.999  1.00  0.00    +0.000 H 
ENDROOT
BRANCH    7    6
ATOM     35  H8  UNL A   1      47.762  23.591 323.769  1.00  0.00    +0.000 H 
ATOM     36  H9  UNL A   1      48.589  22.930 322.424  1.00  0.00    +0.000 H 
ATOM      6  C6  UNL A   1      47.574  23.161 322.775  1.00  0.00    +0.000 C 
BRANCH    6    5
ATOM     33  H6  UNL A   1      47.596  25.169 321.943  1.00  0.00    +0.000 H 
ATOM     34  H7  UNL A   1      46.943  23.985 320.838  1.00  0.00    +0.000 H 
ATOM      5  C5  UNL A   1      46.957  24.275 321.892  1.00  0.00    +0.000 C 
BRANCH    5    4
ATOM      4  C4  UNL A   1      45.533  24.658 322.295  1.00  0.00    +0.000 C 
ATOM     31  H4  UNL A   1      44.908  23.758 322.333  1.00  0.00    +0.000 H 
ATOM     32  H5  UNL A   1      45.542  25.089 323.305  1.00  0.00    +0.000 H 
BRANCH    4    3
ATOM      3  C3  UNL A   1      44.909  25.649 321.312  1.00  0.00    +0.000 C 
ATOM     29  H2  UNL A   1      45.680  26.074 320.661  1.00  0.00    +0.000 H 
ATOM     30  H3  UNL A   1      44.176  25.141 320.674  1.00  0.00    +0.000 H 
BRANCH    3    2
ATOM      2  C2  UNL A   1      44.211  26.782 322.047  1.00  0.00    +0.000 C 
BRANCH    2    1
ATOM      1  C1  UNL A   1      43.613  27.752 322.679  1.00  0.00    +0.000 C 
ATOM     28  H1  UNL A   1      43.128  28.545 323.200  1.00  0.00    +0.000 H 
ENDBRANCH    2    1
ENDBRANCH    3    2
ENDBRANCH    4    3
ENDBRANCH    5    4
ENDBRANCH    6    5
ENDBRANCH    7    6
BRANCH   11   12
ATOM     12  C11 UNL A   1      45.118  17.828 327.265  1.00  0.00    +0.000 C 
ATOM     38  H11 UNL A   1      46.002  17.451 327.781  1.00  0.00    +0.000 H 
ATOM     39  H12 UNL A   1      44.465  16.964 327.171  1.00  0.00    +0.000 H 
ATOM     40  H13 UNL A   1      44.716  18.506 328.044  1.00  0.00    +0.000 H 
ENDBRANCH   11   12
BRANCH   11   13
ATOM     41  H14 UNL A   1      47.462  19.121 325.359  1.00  0.00    +0.000 H 
ATOM     42  H15 UNL A   1      46.947  17.436 325.092  1.00  0.00    +0.000 H 
ATOM     43  H16 UNL A   1      47.243  18.157 326.696  1.00  0.00    +0.000 H 
ATOM     13  C12 UNL A   1      46.782  18.330 325.700  1.00  0.00    +0.000 C 
ENDBRANCH   11   13
BRANCH   17   18
ATOM     49  H22 UNL A   1      42.600  14.397 326.577  1.00  0.00    +0.000 H 
ATOM     18  C17 UNL A   1      41.972  14.780 325.728  1.00  0.00    +0.000 C 
ATOM     51  H24 UNL A   1      41.029  14.946 326.270  1.00  0.00    +0.000 H 
ATOM     50  H23 UNL A   1      41.955  13.896 325.091  1.00  0.00    +0.000 H 
ENDBRANCH   17   18
BRANCH   22   23
ATOM     54  H27 UNL A   1      45.725  18.260 320.917  1.00  0.00    +0.000 H 
ATOM     23  O2  UNL A   1      45.188  19.051 320.984  1.00  0.00    +0.000 O 
ENDBRANCH   22   23
BRANCH   24   25
ATOM     25  C23 UNL A   1      46.534  21.637 320.379  1.00  0.00    +0.000 C 
ATOM     26  O3  UNL A   1      45.558  22.311 319.906  1.00  0.00    +0.000 O 
ATOM     27  O4  UNL A   1      47.561  21.390 319.779  1.00  0.00    +0.000 O 
ENDBRANCH   24   25
TORSDOF 11
ENDMDL
MODEL 22
REMARK VINA RESULT:    -5.706     18.456     25.473
REMARK INTER + INTRA:          -9.188
REMARK INTER:                  -8.599
REMARK INTRA:                  -0.589
REMARK UNBOUND:                -0.647
ROOT
ATOM      7  C7  UNL A   1      40.127  26.106 282.704  1.00  0.00    +0.000 C 
ATOM      8  C8  UNL A   1      41.441  25.644 282.972  1.00  0.00    +0.000 C 
ATOM      9  C9  UNL A   1      41.925  24.510 282.311  1.00  0.00    +0.000 C 
ATOM     10  O1  UNL A   1      43.297  24.243 282.756  1.00  0.00    +0.000 O 
ATOM     11  C10 UNL A   1      43.827  23.496 281.658  1.00  0.00    +0.000 C 
ATOM     14  C13 UNL A   1      42.777  22.235 281.929  1.00  0.00    +0.000 C 
ATOM     15  C14 UNL A   1      43.369  20.910 282.376  1.00  0.00    +0.000 C 
ATOM     16  C15 UNL A   1      44.001  19.820 281.601  1.00  0.00    +0.000 C 
ATOM     17  C16 UNL A   1      43.604  20.027 280.122  1.00  0.00    +0.000 C 
ATOM     19  C18 UNL A   1      42.725  21.096 279.743  1.00  0.00    +0.000 C 
ATOM     20  C19 UNL A   1      41.794  22.138 280.828  1.00  0.00    +0.000 C 
ATOM     21  C20 UNL A   1      41.238  23.712 281.231  1.00  0.00    +0.000 C 
ATOM     22  C21 UNL A   1      39.908  24.186 281.053  1.00  0.00    +0.000 C 
ATOM     24  C22 UNL A   1      39.335  25.357 281.778  1.00  0.00    +0.000 C 
ATOM     37  H10 UNL A   1      42.040  26.147 283.702  1.00  0.00    +0.000 H 
ATOM     44  H17 UNL A   1      42.216  22.396 282.875  1.00  0.00    +0.000 H 
ATOM     45  H18 UNL A   1      44.068  21.380 281.740  1.00  0.00    +0.000 H 
ATOM     46  H19 UNL A   1      42.397  20.403 282.362  1.00  0.00    +0.000 H 
ATOM     47  H20 UNL A   1      43.778  18.836 282.026  1.00  0.00    +0.000 H 
ATOM     48  H21 UNL A   1      45.109  19.913 281.718  1.00  0.00    +0.000 H 
ATOM     52  H25 UNL A   1      42.479  21.204 278.689  1.00  0.00    +0.000 H 
ATOM     53  H26 UNL A   1      40.922  21.508 281.055  1.00  0.00    +0.000 H 
ENDROOT
BRANCH    7    6
ATOM     35  H8  UNL A   1      39.383  28.138 282.728  1.00  0.00    +0.000 H 
ATOM     36  H9  UNL A   1      38.726  27.165 283.972  1.00  0.00    +0.000 H 
ATOM      6  C6  UNL A   1      39.672  27.361 283.450  1.00  0.00    +0.000 C 
BRANCH    6    5
ATOM     33  H6  UNL A   1      41.518  27.284 284.593  1.00  0.00    +0.000 H 
ATOM     34  H7  UNL A   1      41.150  28.887 284.010  1.00  0.00    +0.000 H 
ATOM      5  C5  UNL A   1      40.691  27.990 284.433  1.00  0.00    +0.000 C 
BRANCH    5    4
ATOM      4  C4  UNL A   1      40.084  28.363 285.786  1.00  0.00    +0.000 C 
ATOM     31  H4  UNL A   1      40.160  29.446 285.937  1.00  0.00    +0.000 H 
ATOM     32  H5  UNL A   1      39.016  28.108 285.791  1.00  0.00    +0.000 H 
BRANCH    4    3
ATOM      3  C3  UNL A   1      40.793  27.655 286.942  1.00  0.00    +0.000 C 
ATOM     29  H2  UNL A   1      40.173  26.839 287.325  1.00  0.00    +0.000 H 
ATOM     30  H3  UNL A   1      41.741  27.223 286.599  1.00  0.00    +0.000 H 
BRANCH    3    2
ATOM      2  C2  UNL A   1      41.085  28.623 288.078  1.00  0.00    +0.000 C 
BRANCH    2    1
ATOM      1  C1  UNL A   1      41.334  29.453 289.052  1.00  0.00    +0.000 C 
ATOM     28  H1  UNL A   1      41.537  30.136 289.843  1.00  0.00    +0.000 H 
ENDBRANCH    2    1
ENDBRANCH    3    2
ENDBRANCH    4    3
ENDBRANCH    5    4
ENDBRANCH    6    5
ENDBRANCH    7    6
BRANCH   11   12
ATOM     12  C11 UNL A   1      45.327  23.040 281.454  1.00  0.00    +0.000 C 
ATOM     38  H11 UNL A   1      45.769  23.005 280.457  1.00  0.00    +0.000 H 
ATOM     39  H12 UNL A   1      45.569  22.077 281.896  1.00  0.00    +0.000 H 
ATOM     40  H13 UNL A   1      45.960  23.823 281.917  1.00  0.00    +0.000 H 
ENDBRANCH   11   12
BRANCH   11   13
ATOM     41  H14 UNL A   1      43.025  25.065 280.147  1.00  0.00    +0.000 H 
ATOM     42  H15 UNL A   1      44.767  24.721 279.994  1.00  0.00    +0.000 H 
ATOM     43  H16 UNL A   1      44.037  25.648 281.331  1.00  0.00    +0.000 H 
ATOM     13  C12 UNL A   1      43.924  24.748 280.690  1.00  0.00    +0.000 C 
ENDBRANCH   11   13
BRANCH   17   18
ATOM     49  H22 UNL A   1      45.316  18.631 280.191  1.00  0.00    +0.000 H 
ATOM     18  C17 UNL A   1      44.502  18.922 279.474  1.00  0.00    +0.000 C 
ATOM     51  H24 UNL A   1      44.012  17.944 279.360  1.00  0.00    +0.000 H 
ATOM     50  H23 UNL A   1      45.103  19.209 278.611  1.00  0.00    +0.000 H 
ENDBRANCH   17   18
BRANCH   22   23
ATOM     54  H27 UNL A   1      38.166  23.767 280.370  1.00  0.00    +0.000 H 
ATOM     23  O2  UNL A   1      39.072  23.516 280.186  1.00  0.00    +0.000 O 
ENDBRANCH   22   23
BRANCH   24   25
ATOM     25  C23 UNL A   1      37.816  25.773 281.668  1.00  0.00    +0.000 C 
ATOM     26  O3  UNL A   1      37.031  25.213 282.505  1.00  0.00    +0.000 O 
ATOM     27  O4  UNL A   1      37.464  26.541 280.795  1.00  0.00    +0.000 O 
ENDBRANCH   24   25
TORSDOF 11
ENDMDL
MODEL 23
REMARK VINA RESULT:    -5.696     26.620     30.596
REMARK INTER + INTRA:          -9.174
REMARK INTER:                  -7.474
REMARK INTRA:                  -1.700
REMARK UNBOUND:                -0.647
ROOT
ATOM      7  C7  UNL A   1      51.195  16.460 299.102  1.00  0.00    +0.000 C 
ATOM      8  C8  UNL A   1      51.193  17.874 299.210  1.00  0.00    +0.000 C 
ATOM      9  C9  UNL A   1      50.861  18.654 298.097  1.00  0.00    +0.000 C 
ATOM     10  O1  UNL A   1      50.928  20.072 298.467  1.00  0.00    +0.000 O 
ATOM     11  C10 UNL A   1      50.059  20.673 297.503  1.00  0.00    +0.000 C 
ATOM     14  C13 UNL A   1      51.067  20.259 296.246  1.00  0.00    +0.000 C 
ATOM     15  C14 UNL A   1      51.749  21.387 295.491  1.00  0.00    +0.000 C 
ATOM     16  C15 UNL A   1      51.255  22.265 294.408  1.00  0.00    +0.000 C 
ATOM     17  C16 UNL A   1      49.996  21.593 293.817  1.00  0.00    +0.000 C 
ATOM     19  C18 UNL A   1      49.552  20.317 294.301  1.00  0.00    +0.000 C 
ATOM     20  C19 UNL A   1      50.428  19.235 295.392  1.00  0.00    +0.000 C 
ATOM     21  C20 UNL A   1      50.398  18.176 296.744  1.00  0.00    +0.000 C 
ATOM     22  C21 UNL A   1      50.481  16.757 296.680  1.00  0.00    +0.000 C 
ATOM     24  C22 UNL A   1      50.883  15.890 297.827  1.00  0.00    +0.000 C 
ATOM     37  H10 UNL A   1      51.477  18.334 300.134  1.00  0.00    +0.000 H 
ATOM     44  H17 UNL A   1      52.018  19.836 296.635  1.00  0.00    +0.000 H 
ATOM     45  H18 UNL A   1      50.806  21.735 295.814  1.00  0.00    +0.000 H 
ATOM     46  H19 UNL A   1      52.213  20.702 294.771  1.00  0.00    +0.000 H 
ATOM     47  H20 UNL A   1      52.047  22.517 293.695  1.00  0.00    +0.000 H 
ATOM     48  H21 UNL A   1      50.987  23.251 294.862  1.00  0.00    +0.000 H 
ATOM     52  H25 UNL A   1      48.658  19.886 293.857  1.00  0.00    +0.000 H 
ATOM     53  H26 UNL A   1      51.118  18.727 294.702  1.00  0.00    +0.000 H 
ENDROOT
BRANCH    7    6
ATOM     35  H8  UNL A   1      51.759  14.624 300.100  1.00  0.00    +0.000 H 
ATOM     36  H9  UNL A   1      52.516  16.011 300.758  1.00  0.00    +0.000 H 
ATOM      6  C6  UNL A   1      51.549  15.671 300.363  1.00  0.00    +0.000 C 
BRANCH    6    5
ATOM     33  H6  UNL A   1      50.875  15.073 302.340  1.00  0.00    +0.000 H 
ATOM     34  H7  UNL A   1      50.335  16.673 301.895  1.00  0.00    +0.000 H 
ATOM      5  C5  UNL A   1      50.494  15.667 301.497  1.00  0.00    +0.000 C 
BRANCH    5    4
ATOM      4  C4  UNL A   1      49.137  15.110 301.067  1.00  0.00    +0.000 C 
ATOM     31  H4  UNL A   1      49.217  14.683 300.061  1.00  0.00    +0.000 H 
ATOM     32  H5  UNL A   1      48.845  14.295 301.742  1.00  0.00    +0.000 H 
BRANCH    4    3
ATOM      3  C3  UNL A   1      48.054  16.190 301.057  1.00  0.00    +0.000 C 
ATOM     29  H2  UNL A   1      47.186  15.863 301.639  1.00  0.00    +0.000 H 
ATOM     30  H3  UNL A   1      48.434  17.113 301.513  1.00  0.00    +0.000 H 
BRANCH    3    2
ATOM      2  C2  UNL A   1      47.603  16.499 299.638  1.00  0.00    +0.000 C 
BRANCH    2    1
ATOM      1  C1  UNL A   1      47.217  16.764 298.422  1.00  0.00    +0.000 C 
ATOM     28  H1  UNL A   1      46.901  16.975 297.427  1.00  0.00    +0.000 H 
ENDBRANCH    2    1
ENDBRANCH    3    2
ENDBRANCH    4    3
ENDBRANCH    5    4
ENDBRANCH    6    5
ENDBRANCH    7    6
BRANCH   11   12
ATOM     12  C11 UNL A   1      49.582  22.179 297.464  1.00  0.00    +0.000 C 
ATOM     38  H11 UNL A   1      50.306  22.995 297.469  1.00  0.00    +0.000 H 
ATOM     39  H12 UNL A   1      48.865  22.445 298.237  1.00  0.00    +0.000 H 
ATOM     40  H13 UNL A   1      49.120  22.339 296.469  1.00  0.00    +0.000 H 
ENDBRANCH   11   12
BRANCH   11   13
ATOM     41  H14 UNL A   1      48.633  19.036 298.325  1.00  0.00    +0.000 H 
ATOM     42  H15 UNL A   1      47.807  20.497 297.725  1.00  0.00    +0.000 H 
ATOM     43  H16 UNL A   1      48.750  20.422 299.237  1.00  0.00    +0.000 H 
ATOM     13  C12 UNL A   1      48.732  20.118 298.169  1.00  0.00    +0.000 C 
ENDBRANCH   11   13
BRANCH   17   18
ATOM     49  H22 UNL A   1      50.164  23.654 293.037  1.00  0.00    +0.000 H 
ATOM     18  C17 UNL A   1      49.538  22.738 292.855  1.00  0.00    +0.000 C 
ATOM     51  H24 UNL A   1      49.781  22.570 291.796  1.00  0.00    +0.000 H 
ATOM     50  H23 UNL A   1      48.544  23.155 293.011  1.00  0.00    +0.000 H 
ENDBRANCH   17   18
BRANCH   22   23
ATOM     54  H27 UNL A   1      49.630  15.379 295.652  1.00  0.00    +0.000 H 
ATOM     23  O2  UNL A   1      50.207  16.126 295.486  1.00  0.00    +0.000 O 
ENDBRANCH   22   23
BRANCH   24   25
ATOM     25  C23 UNL A   1      51.104  14.334 297.688  1.00  0.00    +0.000 C 
ATOM     26  O3  UNL A   1      50.083  13.610 297.941  1.00  0.00    +0.000 O 
ATOM     27  O4  UNL A   1      52.205  13.905 297.405  1.00  0.00    +0.000 O 
ENDBRANCH   24   25
TORSDOF 11
ENDMDL
MODEL 24
REMARK VINA RESULT:    -5.602     37.499     39.488
REMARK INTER + INTRA:          -9.033
REMARK INTER:                  -8.386
REMARK INTRA:                  -0.647
REMARK UNBOUND:                -0.647
ROOT
ATOM      7  C7  UNL A   1      41.931  30.596 330.768  1.00  0.00    +0.000 C 
ATOM      8  C8  UNL A   1      40.681  31.200 331.053  1.00  0.00    +0.000 C 
ATOM      9  C9  UNL A   1      40.610  32.235 331.992  1.00  0.00    +0.000 C 
ATOM     10  O1  UNL A   1      39.219  32.689 332.103  1.00  0.00    +0.000 O 
ATOM     11  C10 UNL A   1      39.378  34.022 332.594  1.00  0.00    +0.000 C 
ATOM     14  C13 UNL A   1      40.024  33.482 334.028  1.00  0.00    +0.000 C 
ATOM     15  C14 UNL A   1      39.221  33.721 335.296  1.00  0.00    +0.000 C 
ATOM     16  C15 UNL A   1      39.096  34.920 336.152  1.00  0.00    +0.000 C 
ATOM     17  C16 UNL A   1      40.276  35.853 335.801  1.00  0.00    +0.000 C 
ATOM     19  C18 UNL A   1      41.263  35.454 334.838  1.00  0.00    +0.000 C 
ATOM     20  C19 UNL A   1      41.453  33.849 334.119  1.00  0.00    +0.000 C 
ATOM     21  C20 UNL A   1      41.752  32.893 332.725  1.00  0.00    +0.000 C 
ATOM     22  C21 UNL A   1      42.965  32.204 332.443  1.00  0.00    +0.000 C 
ATOM     24  C22 UNL A   1      43.075  31.060 331.491  1.00  0.00    +0.000 C 
ATOM     37  H10 UNL A   1      39.796  30.838 330.572  1.00  0.00    +0.000 H 
ATOM     44  H17 UNL A   1      39.950  32.375 334.094  1.00  0.00    +0.000 H 
ATOM     45  H18 UNL A   1      39.034  34.524 334.636  1.00  0.00    +0.000 H 
ATOM     46  H19 UNL A   1      40.002  33.300 335.940  1.00  0.00    +0.000 H 
ATOM     47  H20 UNL A   1      38.989  34.656 337.209  1.00  0.00    +0.000 H 
ATOM     48  H21 UNL A   1      38.126  35.418 335.905  1.00  0.00    +0.000 H 
ATOM     52  H25 UNL A   1      42.072  36.147 334.620  1.00  0.00    +0.000 H 
ATOM     53  H26 UNL A   1      42.009  33.314 334.903  1.00  0.00    +0.000 H 
ENDROOT
BRANCH    7    6
ATOM     35  H8  UNL A   1      42.654  28.702 330.008  1.00  0.00    +0.000 H 
ATOM     36  H9  UNL A   1      40.981  28.944 329.738  1.00  0.00    +0.000 H 
ATOM      6  C6  UNL A   1      41.937  29.484 329.718  1.00  0.00    +0.000 C 
BRANCH    6    5
ATOM     33  H6  UNL A   1      41.701  30.816 328.017  1.00  0.00    +0.000 H 
ATOM     34  H7  UNL A   1      43.321  30.179 328.159  1.00  0.00    +0.000 H 
ATOM      5  C5  UNL A   1      42.268  29.906 328.264  1.00  0.00    +0.000 C 
BRANCH    5    4
ATOM      4  C4  UNL A   1      41.954  28.827 327.228  1.00  0.00    +0.000 C 
ATOM     31  H4  UNL A   1      42.726  28.050 327.261  1.00  0.00    +0.000 H 
ATOM     32  H5  UNL A   1      40.999  28.346 327.478  1.00  0.00    +0.000 H 
BRANCH    4    3
ATOM      3  C3  UNL A   1      41.893  29.399 325.811  1.00  0.00    +0.000 C 
ATOM     29  H2  UNL A   1      41.896  28.589 325.074  1.00  0.00    +0.000 H 
ATOM     30  H3  UNL A   1      40.968  29.973 325.672  1.00  0.00    +0.000 H 
BRANCH    3    2
ATOM      2  C2  UNL A   1      43.077  30.313 325.539  1.00  0.00    +0.000 C 
BRANCH    2    1
ATOM      1  C1  UNL A   1      44.092  31.097 325.306  1.00  0.00    +0.000 C 
ATOM     28  H1  UNL A   1      44.922  31.735 325.109  1.00  0.00    +0.000 H 
ENDBRANCH    2    1
ENDBRANCH    3    2
ENDBRANCH    4    3
ENDBRANCH    5    4
ENDBRANCH    6    5
ENDBRANCH    7    6
BRANCH   11   12
ATOM     12  C11 UNL A   1      38.245  35.108 332.777  1.00  0.00    +0.000 C 
ATOM     38  H11 UNL A   1      38.107  35.901 332.040  1.00  0.00    +0.000 H 
ATOM     39  H12 UNL A   1      38.264  35.623 333.734  1.00  0.00    +0.000 H 
ATOM     40  H13 UNL A   1      37.277  34.577 332.669  1.00  0.00    +0.000 H 
ENDBRANCH   11   12
BRANCH   11   13
ATOM     41  H14 UNL A   1      40.643  34.014 330.648  1.00  0.00    +0.000 H 
ATOM     42  H15 UNL A   1      40.245  35.640 331.258  1.00  0.00    +0.000 H 
ATOM     43  H16 UNL A   1      39.072  34.538 330.491  1.00  0.00    +0.000 H 
ATOM     13  C12 UNL A   1      39.911  34.599 331.217  1.00  0.00    +0.000 C 
ENDBRANCH   11   13
BRANCH   17   18
ATOM     49  H22 UNL A   1      39.635  36.780 337.701  1.00  0.00    +0.000 H 
ATOM     18  C17 UNL A   1      39.860  37.100 336.648  1.00  0.00    +0.000 C 
ATOM     51  H24 UNL A   1      40.677  37.808 336.852  1.00  0.00    +0.000 H 
ATOM     50  H23 UNL A   1      38.919  37.588 336.393  1.00  0.00    +0.000 H 
ENDBRANCH   17   18
BRANCH   22   23
ATOM     54  H27 UNL A   1      44.816  32.706 332.463  1.00  0.00    +0.000 H 
ATOM     23  O2  UNL A   1      44.114  32.581 333.103  1.00  0.00    +0.000 O 
ENDBRANCH   22   23
BRANCH   24   25
ATOM     25  C23 UNL A   1      44.402  30.225 331.305  1.00  0.00    +0.000 C 
ATOM     26  O3  UNL A   1      44.521  29.208 332.067  1.00  0.00    +0.000 O 
ATOM     27  O4  UNL A   1      45.242  30.599 330.510  1.00  0.00    +0.000 O 
ENDBRANCH   24   25
TORSDOF 11
ENDMDL
MODEL 25
REMARK VINA RESULT:    -5.598     21.600     26.145
REMARK INTER + INTRA:          -9.027
REMARK INTER:                  -7.518
REMARK INTRA:                  -1.509
REMARK UNBOUND:                -0.647
ROOT
ATOM      7  C7  UNL A   1      40.061  25.975 282.247  1.00  0.00    +0.000 C 
ATOM      8  C8  UNL A   1      41.381  25.585 282.583  1.00  0.00    +0.000 C 
ATOM      9  C9  UNL A   1      41.928  24.429 282.016  1.00  0.00    +0.000 C 
ATOM     10  O1  UNL A   1      43.296  24.248 282.517  1.00  0.00    +0.000 O 
ATOM     11  C10 UNL A   1      43.887  23.449 281.489  1.00  0.00    +0.000 C 
ATOM     14  C13 UNL A   1      42.877  22.170 281.817  1.00  0.00    +0.000 C 
ATOM     15  C14 UNL A   1      43.506  20.902 282.371  1.00  0.00    +0.000 C 
ATOM     16  C15 UNL A   1      44.202  19.788 281.690  1.00  0.00    +0.000 C 
ATOM     17  C16 UNL A   1      43.844  19.878 280.191  1.00  0.00    +0.000 C 
ATOM     19  C18 UNL A   1      42.937  20.883 279.713  1.00  0.00    +0.000 C 
ATOM     20  C19 UNL A   1      41.934  21.958 280.697  1.00  0.00    +0.000 C 
ATOM     21  C20 UNL A   1      41.307  23.533 280.975  1.00  0.00    +0.000 C 
ATOM     22  C21 UNL A   1      39.966  23.940 280.727  1.00  0.00    +0.000 C 
ATOM     24  C22 UNL A   1      39.326  25.134 281.353  1.00  0.00    +0.000 C 
ATOM     37  H10 UNL A   1      41.939  26.160 283.294  1.00  0.00    +0.000 H 
ATOM     44  H17 UNL A   1      42.282  22.371 282.733  1.00  0.00    +0.000 H 
ATOM     45  H18 UNL A   1      44.206  21.356 281.723  1.00  0.00    +0.000 H 
ATOM     46  H19 UNL A   1      42.554  20.357 282.364  1.00  0.00    +0.000 H 
ATOM     47  H20 UNL A   1      44.004  18.828 282.176  1.00  0.00    +0.000 H 
ATOM     48  H21 UNL A   1      45.301  19.934 281.833  1.00  0.00    +0.000 H 
ATOM     52  H25 UNL A   1      42.720  20.910 278.648  1.00  0.00    +0.000 H 
ATOM     53  H26 UNL A   1      41.080  21.311 280.942  1.00  0.00    +0.000 H 
ENDROOT
BRANCH    7    6
ATOM     35  H8  UNL A   1      38.435  27.264 282.866  1.00  0.00    +0.000 H 
ATOM     36  H9  UNL A   1      39.744  27.250 283.969  1.00  0.00    +0.000 H 
ATOM      6  C6  UNL A   1      39.535  27.258 282.891  1.00  0.00    +0.000 C 
BRANCH    6    5
ATOM     33  H6  UNL A   1      39.925  29.392 283.023  1.00  0.00    +0.000 H 
ATOM     34  H7  UNL A   1      41.088  28.551 282.029  1.00  0.00    +0.000 H 
ATOM      5  C5  UNL A   1      40.024  28.593 282.274  1.00  0.00    +0.000 C 
BRANCH    5    4
ATOM      4  C4  UNL A   1      39.264  28.997 281.011  1.00  0.00    +0.000 C 
ATOM     31  H4  UNL A   1      38.520  28.230 280.768  1.00  0.00    +0.000 H 
ATOM     32  H5  UNL A   1      38.717  29.931 281.195  1.00  0.00    +0.000 H 
BRANCH    4    3
ATOM      3  C3  UNL A   1      40.200  29.170 279.814  1.00  0.00    +0.000 C 
ATOM     29  H2  UNL A   1      39.850  29.985 279.172  1.00  0.00    +0.000 H 
ATOM     30  H3  UNL A   1      41.211  29.425 280.156  1.00  0.00    +0.000 H 
BRANCH    3    2
ATOM      2  C2  UNL A   1      40.274  27.895 278.989  1.00  0.00    +0.000 C 
BRANCH    2    1
ATOM      1  C1  UNL A   1      40.337  26.803 278.281  1.00  0.00    +0.000 C 
ATOM     28  H1  UNL A   1      40.387  25.906 277.708  1.00  0.00    +0.000 H 
ENDBRANCH    2    1
ENDBRANCH    3    2
ENDBRANCH    4    3
ENDBRANCH    5    4
ENDBRANCH    6    5
ENDBRANCH    7    6
BRANCH   11   12
ATOM     12  C11 UNL A   1      45.409  23.042 281.360  1.00  0.00    +0.000 C 
ATOM     38  H11 UNL A   1      45.693  22.062 280.971  1.00  0.00    +0.000 H 
ATOM     39  H12 UNL A   1      45.983  23.151 282.276  1.00  0.00    +0.000 H 
ATOM     40  H13 UNL A   1      45.845  23.693 280.576  1.00  0.00    +0.000 H 
ENDBRANCH   11   12
BRANCH   11   13
ATOM     41  H14 UNL A   1      43.194  24.707 279.664  1.00  0.00    +0.000 H 
ATOM     42  H15 UNL A   1      44.947  24.768 279.975  1.00  0.00    +0.000 H 
ATOM     43  H16 UNL A   1      43.717  25.571 280.985  1.00  0.00    +0.000 H 
ATOM     13  C12 UNL A   1      43.966  24.636 280.440  1.00  0.00    +0.000 C 
ENDBRANCH   11   13
BRANCH   17   18
ATOM     49  H22 UNL A   1      45.866  19.128 279.709  1.00  0.00    +0.000 H 
ATOM     18  C17 UNL A   1      44.803  18.769 279.646  1.00  0.00    +0.000 C 
ATOM     51  H24 UNL A   1      44.882  17.878 280.286  1.00  0.00    +0.000 H 
ATOM     50  H23 UNL A   1      44.745  18.536 278.583  1.00  0.00    +0.000 H 
ENDBRANCH   17   18
BRANCH   22   23
ATOM     54  H27 UNL A   1      38.568  22.667 280.409  1.00  0.00    +0.000 H 
ATOM     23  O2  UNL A   1      39.183  23.180 279.885  1.00  0.00    +0.000 O 
ENDBRANCH   22   23
BRANCH   24   25
ATOM     25  C23 UNL A   1      37.797  25.480 281.171  1.00  0.00    +0.000 C 
ATOM     26  O3  UNL A   1      37.014  24.985 282.050  1.00  0.00    +0.000 O 
ATOM     27  O4  UNL A   1      37.438  26.136 280.214  1.00  0.00    +0.000 O 
ENDBRANCH   24   25
TORSDOF 11
ENDMDL
